
**** 05/19/25 09:16:38 **** PSpice 24.1.0 (23 January 2025) *** ID# 0 ********

 ** Profile: "SCHEMATIC1-dioda"  [ D:\Orcad Work\cdssetup\workspace\projects\draft_proiect_paul\Draft_proiect_PAUL-PSpiceFiles\SCHEMA


 ****     CIRCUIT DESCRIPTION


******************************************************************************




** Creating circuit file "dioda.cir" 
** WARNING: THIS AUTOMATICALLY GENERATED FILE MAY BE OVERWRITTEN BY SUBSEQUENT SIMULATIONS

*Libraries: 
* Profile Libraries :
* Local Libraries :
.LIB "D:/Orcad Work/cdssetup/workspace/projects/draft_proiect2/diodaled.lib" 
* From [PSPICE NETLIST] section of D:\Orcad Work\cdssetup\OrCAD_PSpice\24.1.0\PSpice.ini file:
.lib "nom.lib" 

*Analysis directives: 
.DC LIN V_V3 0 5 0.1 
.OPTIONS ADVCONV
.PROBE64 V(alias(*)) I(alias(*)) W(alias(*)) D(alias(*)) NOISE(alias(*)) 
.INC "..\SCHEMATIC1.net" 



**** INCLUDING SCHEMATIC1.net ****
* source DRAFT_PROIECT_PAUL
.EXTERNAL OUTPUT out
V_V1         VCC 0 15V
R_R8         N300141 N29998 R_R8 18k TC=0,0 
.model        R_R8 RES R=1 DEV=1% TC1=0 TC2=0
R_R5         VCC N30028 R_R5 10k TC=0,0 
.model        R_R5 RES R=1 DEV=1% TC1=0 TC2=0
X_P1         N300601 N30002 N30028 POT PARAMS: SET={cursor1} VALUE=2.5k
X_P2         N29998 N29892 N29892 POT PARAMS: SET={cursor2} VALUE=51k
R_R2         N29758 N29340 R_R2 20k TC=0,0 
.model        R_R2 RES R=1 DEV=1% TC1=0 TC2=0
V_V2         -VCC 0 -15V
R_R1         N29518 N29340 R_R1 10k TC=0,0 
.model        R_R1 RES R=1 DEV=1% TC1=0 TC2=0
R_R3         VPRAG N29440 R_R3 2k TC=0,0 
.model        R_R3 RES R=1 DEV=1% TC1=0 TC2=0
X_U3A         N29440 0 VCC -VCC N29296 TL082
C_C1         N29340 VPRAG C_C1 2.7n  TC=0,0 
.model        C_C1 CAP C=1 DEV=1% TC1=0 TC2=0 VC1=0 VC2=0
X_U3B         N30002 VPRAG VCC -VCC N37316 TL082
X_U2B         0 N29340 VCC -VCC VPRAG TL082
D_D2         N29518 N29296 D1N4148 
R_R4         N29440 N29296 R_R4 8.2k TC=0,0 
.model        R_R4 RES R=1 DEV=1% TC1=0 TC2=0
D_D1         N29296 N29758 D1N4148 
R_R6         N300601 -VCC R_R6 13k TC=0,0 
.model        R_R6 RES R=1 DEV=1% TC1=0 TC2=0
R_R7         N29892 N37316 R_R7 3.9k TC=0,0 
.model        R_R7 RES R=1 DEV=1% TC1=0 TC2=0
D_D3         N37464 N37483 DIODALED 1
X_U4A         N29998 OUT VCC -VCC OUT TL082
R_R10         N37464 OUT R_R10 560 TC=0,0 
.model        R_R10 RES R=1 DEV=1% TC1=0 TC2=0
R_R9         0 N300141 R_R9 1k TC=0,0 
.model        R_R9 RES R=1 DEV=1% TC1=0 TC2=0
D_D4         N37483 0 Dbreak 
D_D5         N42447 0 DIODALED 1
V_V3         N42455 0 3
R_R11         N42455 N42447  1k TC=0,0 
.IC         V(N29340 )=0
.PARAM  cursor1=1 cursor2=1

**** RESUMING dioda.cir ****
.END

**** 05/19/25 09:16:38 **** PSpice 24.1.0 (23 January 2025) *** ID# 0 ********

 ** Profile: "SCHEMATIC1-dioda"  [ D:\Orcad Work\cdssetup\workspace\projects\draft_proiect_paul\Draft_proiect_PAUL-PSpiceFiles\SCHEMA


 ****     Diode MODEL PARAMETERS


******************************************************************************




               DIODALED        D1N4148         Dbreak          X_U3A.dx        
          IS  168.630000E-15    2.682000E-09   10.000000E-15  800.000000E-18 
           N    3.1728          1.836                                        
         ISR    1.509600E-06    1.565000E-09                                 
          NR    4.995                                                        
         IKF                     .04417                                      
          BV    5.3752        100                                            
         IBV   10             100.000000E-06                                 
          RS    1.8496           .5664           .1                          
          TT    5.000000E-09   11.540000E-09                                 
         CJO    1.000000E-12    4.000000E-12  100.000000E-15                 
          VJ     .75             .5                                          
           M     .3333           .3333                                       


               X_U3A.dy        X_U3B.dx        X_U3B.dy        X_U2B.dx        
          IS  800.000000E-18  800.000000E-18  800.000000E-18  800.000000E-18 
          RS    1.000000E-03                    1.000000E-03                 
         CJO   10.000000E-12                   10.000000E-12                 


               X_U2B.dy        X_U4A.dx        X_U4A.dy        
          IS  800.000000E-18  800.000000E-18  800.000000E-18 
          RS    1.000000E-03                    1.000000E-03 
         CJO   10.000000E-12                   10.000000E-12 


**** 05/19/25 09:16:38 **** PSpice 24.1.0 (23 January 2025) *** ID# 0 ********

 ** Profile: "SCHEMATIC1-dioda"  [ D:\Orcad Work\cdssetup\workspace\projects\draft_proiect_paul\Draft_proiect_PAUL-PSpiceFiles\SCHEMA


 ****     Junction FET MODEL PARAMETERS


******************************************************************************




               X_U3A.jx1       X_U3A.jx2       X_U3B.jx1       X_U3B.jx2       
               NJF             NJF             NJF             NJF             
         VTO   -1              -1              -1              -1            
        BETA  222.070000E-06  222.070000E-06  222.070000E-06  222.070000E-06 
          IS  100.000000E-12  100.000000E-12  100.000000E-12  100.000000E-12 


               X_U2B.jx1       X_U2B.jx2       X_U4A.jx1       X_U4A.jx2       
               NJF             NJF             NJF             NJF             
         VTO   -1              -1              -1              -1            
        BETA  222.070000E-06  222.070000E-06  222.070000E-06  222.070000E-06 
          IS  100.000000E-12  100.000000E-12  100.000000E-12  100.000000E-12 


**** 05/19/25 09:16:38 **** PSpice 24.1.0 (23 January 2025) *** ID# 0 ********

 ** Profile: "SCHEMATIC1-dioda"  [ D:\Orcad Work\cdssetup\workspace\projects\draft_proiect_paul\Draft_proiect_PAUL-PSpiceFiles\SCHEMA


 ****     Resistor MODEL PARAMETERS


******************************************************************************




               R_R8            R_R5            R_R2            R_R1            
           R    1               1               1               1            


               R_R3            R_R4            R_R6            R_R7            
           R    1               1               1               1            


               R_R10           R_R9            
           R    1               1            


**** 05/19/25 09:16:38 **** PSpice 24.1.0 (23 January 2025) *** ID# 0 ********

 ** Profile: "SCHEMATIC1-dioda"  [ D:\Orcad Work\cdssetup\workspace\projects\draft_proiect_paul\Draft_proiect_PAUL-PSpiceFiles\SCHEMA


 ****     Capacitor MODEL PARAMETERS


******************************************************************************




               C_C1            
           C    1            



          JOB CONCLUDED

**** 05/19/25 09:16:38 **** PSpice 24.1.0 (23 January 2025) *** ID# 0 ********

 ** Profile: "SCHEMATIC1-dioda"  [ D:\Orcad Work\cdssetup\workspace\projects\draft_proiect_paul\Draft_proiect_PAUL-PSpiceFiles\SCHEMA


 ****     JOB STATISTICS SUMMARY


******************************************************************************



  Total job time (using Solver 1)   =         .02
