
**** 05/18/25 15:06:09 **** PSpice 24.1.0 (23 January 2025) *** ID# 0 ********

 ** Profile: "SCHEMATIC1-Analiza_Monte_Carlo"  [ D:\Orcad Work\cdssetup\workspace\projects\draft_proiect_paul\draft_proiect_paul-pspi


 ****     CIRCUIT DESCRIPTION


******************************************************************************




** Creating circuit file "Analiza_Monte_Carlo.cir" 
** WARNING: THIS AUTOMATICALLY GENERATED FILE MAY BE OVERWRITTEN BY SUBSEQUENT SIMULATIONS

*Libraries: 
* Profile Libraries :
* Local Libraries :
.LIB "D:/Orcad Work/cdssetup/workspace/projects/draft_proiect2/diodaled.lib" 
* From [PSPICE NETLIST] section of D:\Orcad Work\cdssetup\OrCAD_PSpice\24.1.0\PSpice.ini file:
.lib "nom.lib" 

*Analysis directives: 
.TRAN  0 1ms 0 
.MC 100 TRAN V([OUT]) YMAX OUTPUT ALL 
.OPTIONS ADVCONV
.PROBE64 V(alias(*)) I(alias(*)) W(alias(*)) D(alias(*)) NOISE(alias(*)) 
.INC "..\SCHEMATIC1.net" 



**** INCLUDING SCHEMATIC1.net ****
* source DRAFT_PROIECT_PAUL
.EXTERNAL OUTPUT out
V_V1         VCC 0 15V
R_R8         N300141 N29998 R_R8 18k TC=0,0 
.model        R_R8 RES R=1 DEV=1% TC1=0 TC2=0
R_R5         VCC N30028 R_R5 10k TC=0,0 
.model        R_R5 RES R=1 DEV=1% TC1=0 TC2=0
X_P1         N300601 N30002 N30028 POT PARAMS: SET=1 VALUE=2.5k
X_P2         N29998 N29892 N29892 POT PARAMS: SET=1 VALUE=51k
R_R2         N29758 N29340 R_R2 20k TC=0,0 
.model        R_R2 RES R=1 DEV=1% TC1=0 TC2=0
V_V2         -VCC 0 -15V
R_R1         N29518 N29340 R_R1 10k TC=0,0 
.model        R_R1 RES R=1 DEV=1% TC1=0 TC2=0
R_R3         VPRAG N29440 R_R3 2k TC=0,0 
.model        R_R3 RES R=1 DEV=1% TC1=0 TC2=0
X_U3A         N29440 0 VCC -VCC N29296 TL082
C_C1         N29340 VPRAG C_C1 2.7n  TC=0,0 
.model        C_C1 CAP C=1 DEV=1% TC1=0 TC2=0 VC1=0 VC2=0
X_U3B         N30002 VPRAG VCC -VCC N37316 TL082
X_U2B         0 N29340 VCC -VCC VPRAG TL082
D_D2         N29518 N29296 D1N4148 
R_R4         N29440 N29296 R_R4 8.2k TC=0,0 
.model        R_R4 RES R=1 DEV=1% TC1=0 TC2=0
D_D1         N29296 N29758 D1N4148 
R_R6         N300601 -VCC R_R6 13k TC=0,0 
.model        R_R6 RES R=1 DEV=1% TC1=0 TC2=0
R_R7         N29892 N37316 R_R7 3.9k TC=0,0 
.model        R_R7 RES R=1 DEV=1% TC1=0 TC2=0
D_D3         N37464 N37483 DIODALED 1
X_U4A         N29998 OUT VCC -VCC OUT TL082
R_R10         N37464 OUT R_R10 560 TC=0,0 
.model        R_R10 RES R=1 DEV=1% TC1=0 TC2=0
R_R9         0 N300141 R_R9 1k TC=0,0 
.model        R_R9 RES R=1 DEV=1% TC1=0 TC2=0
D_D4         N37483 0 Dbreak 
.IC         V(N29340 )=0

**** RESUMING Analiza_Monte_Carlo.cir ****
.END

**** 05/18/25 15:06:09 **** PSpice 24.1.0 (23 January 2025) *** ID# 0 ********

 ** Profile: "SCHEMATIC1-Analiza_Monte_Carlo"  [ D:\Orcad Work\cdssetup\workspace\projects\draft_proiect_paul\draft_proiect_paul-pspi


 ****     Diode MODEL PARAMETERS


******************************************************************************




               DIODALED        D1N4148         Dbreak          X_U3A.dx        
          IS  168.630000E-15    2.682000E-09   10.000000E-15  800.000000E-18 
           N    3.1728          1.836                                        
         ISR    1.509600E-06    1.565000E-09                                 
          NR    4.995                                                        
         IKF                     .04417                                      
          BV    5.3752        100                                            
         IBV   10             100.000000E-06                                 
          RS    1.8496           .5664           .1                          
          TT    5.000000E-09   11.540000E-09                                 
         CJO    1.000000E-12    4.000000E-12  100.000000E-15                 
          VJ     .75             .5                                          
           M     .3333           .3333                                       


               X_U3A.dy        X_U3B.dx        X_U3B.dy        X_U2B.dx        
          IS  800.000000E-18  800.000000E-18  800.000000E-18  800.000000E-18 
          RS    1.000000E-03                    1.000000E-03                 
         CJO   10.000000E-12                   10.000000E-12                 


               X_U2B.dy        X_U4A.dx        X_U4A.dy        
          IS  800.000000E-18  800.000000E-18  800.000000E-18 
          RS    1.000000E-03                    1.000000E-03 
         CJO   10.000000E-12                   10.000000E-12 


**** 05/18/25 15:06:09 **** PSpice 24.1.0 (23 January 2025) *** ID# 0 ********

 ** Profile: "SCHEMATIC1-Analiza_Monte_Carlo"  [ D:\Orcad Work\cdssetup\workspace\projects\draft_proiect_paul\draft_proiect_paul-pspi


 ****     Junction FET MODEL PARAMETERS


******************************************************************************




               X_U3A.jx1       X_U3A.jx2       X_U3B.jx1       X_U3B.jx2       
               NJF             NJF             NJF             NJF             
         VTO   -1              -1              -1              -1            
        BETA  222.070000E-06  222.070000E-06  222.070000E-06  222.070000E-06 
          IS  100.000000E-12  100.000000E-12  100.000000E-12  100.000000E-12 


               X_U2B.jx1       X_U2B.jx2       X_U4A.jx1       X_U4A.jx2       
               NJF             NJF             NJF             NJF             
         VTO   -1              -1              -1              -1            
        BETA  222.070000E-06  222.070000E-06  222.070000E-06  222.070000E-06 
          IS  100.000000E-12  100.000000E-12  100.000000E-12  100.000000E-12 


**** 05/18/25 15:06:09 **** PSpice 24.1.0 (23 January 2025) *** ID# 0 ********

 ** Profile: "SCHEMATIC1-Analiza_Monte_Carlo"  [ D:\Orcad Work\cdssetup\workspace\projects\draft_proiect_paul\draft_proiect_paul-pspi


 ****     Resistor MODEL PARAMETERS


******************************************************************************




               R_R8            R_R5            R_R2            R_R1            
           R    1               1               1               1            


               R_R3            R_R4            R_R6            R_R7            
           R    1               1               1               1            


               R_R10           R_R9            
           R    1               1            


**** 05/18/25 15:06:09 **** PSpice 24.1.0 (23 January 2025) *** ID# 0 ********

 ** Profile: "SCHEMATIC1-Analiza_Monte_Carlo"  [ D:\Orcad Work\cdssetup\workspace\projects\draft_proiect_paul\draft_proiect_paul-pspi


 ****     Capacitor MODEL PARAMETERS


******************************************************************************




               C_C1            
           C    1            


**** 05/18/25 15:06:09 **** PSpice 24.1.0 (23 January 2025) *** ID# 0 ********

 ** Profile: "SCHEMATIC1-Analiza_Monte_Carlo"  [ D:\Orcad Work\cdssetup\workspace\projects\draft_proiect_paul\draft_proiect_paul-pspi


 ****     INITIAL TRANSIENT SOLUTION       TEMPERATURE =   27.000 DEG C

                      MONTE CARLO NOMINAL

******************************************************************************



 NODE   VOLTAGE     NODE   VOLTAGE     NODE   VOLTAGE     NODE   VOLTAGE


(  OUT)   11.2010  (  VCC)   15.0000  ( -VCC)  -15.0000  (VPRAG)   -3.3486      

(N29296)  -13.4990 (N29340)-2.576E-06 (N29440)   -5.3389 (N29518)  -12.8820     

(N29758)-151.2E-06 (N29892)   11.2010 (N29998)   11.2010 (N30002)     .2941     

(N30028)    3.2353 (N37316)   13.5000 (N37464)    1.9805 (N37483)     .7292     

(N300141)     .5895                   (N300601)     .2941                       

(X_U2B.6) 308.4E-06                   (X_U2B.7)   -3.2988                       

(X_U2B.8)   -3.2988                   (X_U2B.9)    0.0000                       

(X_U3A.6)   16.0130                   (X_U3A.7)  -15.5330                       

(X_U3A.8)  -15.5330                   (X_U3A.9)    0.0000                       

(X_U3B.6)  -16.0360                   (X_U3B.7)   15.5340                       

(X_U3B.8)   15.5340                   (X_U3B.9)    0.0000                       

(X_U4A.6)    -.0012                   (X_U4A.7)   12.0240                       

(X_U4A.8)   12.0240                   (X_U4A.9)    0.0000                       

(X_U2B.10)     .3992                  (X_U2B.11)   14.5750                      

(X_U2B.12)   14.5750                  (X_U2B.53)   12.6840                      

(X_U2B.54)  -12.6840                  (X_U2B.90)     .9951                      

(X_U2B.91)   40.0000                  (X_U2B.92)  -40.0000                      

(X_U2B.99)    0.0000                  (X_U3A.10)     .1509                      

(X_U3A.11)   14.1510                  (X_U3A.12)   15.0000                      

(X_U3A.53)   12.6840                  (X_U3A.54)  -12.6840                      

(X_U3A.90)  -40.6730                  (X_U3A.91)   40.0000                      

(X_U3A.92)  -40.0000                  (X_U3A.99)    0.0000                      

(X_U3B.10)     .4444                  (X_U3B.11)   15.0000                      

(X_U3B.12)   14.1490                  (X_U3B.53)   12.6840                      

(X_U3B.54)  -12.6840                  (X_U3B.90)   40.6730                      

(X_U3B.91)   40.0000                  (X_U3B.92)  -40.0000                      

(X_U3B.99)    0.0000                  (X_U4A.10)   11.5830                      

(X_U4A.11)   14.5510                  (X_U4A.12)   14.5510                      

(X_U4A.53)   12.6840                  (X_U4A.54)  -12.6840                      

(X_U4A.90)   16.4640                  (X_U4A.91)   40.0000                      

(X_U4A.92)  -40.0000                  (X_U4A.99)    0.0000                  




    VOLTAGE SOURCE CURRENTS
    NAME         CURRENT

    V_V1        -5.241E-02
    V_V2         5.410E-02
    X_U3A.vb     1.601E-04
    X_U3A.vc     2.618E-11
    X_U3A.ve    -3.839E-02
    X_U3A.vlim  -4.067E-02
    X_U3A.vlp   -8.067E-11
    X_U3A.vln    1.609E-04
    X_U3B.vb    -1.604E-04
    X_U3B.vc    -4.008E-02
    X_U3B.ve     2.792E-11
    X_U3B.vlim   4.067E-02
    X_U3B.vlp    1.611E-04
    X_U3B.vln   -8.067E-11
    X_U2B.vb     3.084E-09
    X_U2B.vc     1.603E-11
    X_U2B.ve     1.107E-11
    X_U2B.vlim   9.951E-04
    X_U2B.vlp   -3.901E-11
    X_U2B.vln   -4.100E-11
    X_U4A.vb    -1.175E-08
    X_U4A.vc     1.484E-12
    X_U4A.ve     2.562E-11
    X_U4A.vlim   1.646E-02
    X_U4A.vlp   -2.354E-11
    X_U4A.vln   -5.647E-11

    TOTAL POWER DISSIPATION   1.77E+00  WATTS


**** 05/18/25 15:06:09 **** PSpice 24.1.0 (23 January 2025) *** ID# 0 ********

 ** Profile: "SCHEMATIC1-Analiza_Monte_Carlo"  [ D:\Orcad Work\cdssetup\workspace\projects\draft_proiect_paul\draft_proiect_paul-pspi


 ****     INITIAL TRANSIENT SOLUTION       TEMPERATURE =   27.000 DEG C

                      MONTE CARLO PASS 2

******************************************************************************



 NODE   VOLTAGE     NODE   VOLTAGE     NODE   VOLTAGE     NODE   VOLTAGE


(  OUT)   11.2080  (  VCC)   15.0000  ( -VCC)  -15.0000  (VPRAG)   -3.3452      

(N29296)  -13.4990 (N29340)-2.590E-06 (N29440)   -5.3487 (N29518)  -12.8820     

(N29758)-152.4E-06 (N29892)   11.2080 (N29998)   11.2080 (N30002)     .2983     

(N30028)    3.2322 (N37316)   13.5000 (N37464)    1.9802 (N37483)     .7291     

(N300141)     .5872                   (N300601)     .2983                       

(X_U2B.6) 308.0E-06                   (X_U2B.7)   -3.2952                       

(X_U2B.8)   -3.2952                   (X_U2B.9)    0.0000                       

(X_U3A.6)   16.0130                   (X_U3A.7)  -15.5330                       

(X_U3A.8)  -15.5330                   (X_U3A.9)    0.0000                       

(X_U3B.6)  -16.0360                   (X_U3B.7)   15.5340                       

(X_U3B.8)   15.5340                   (X_U3B.9)    0.0000                       

(X_U4A.6)    -.0012                   (X_U4A.7)   12.0290                       

(X_U4A.8)   12.0290                   (X_U4A.9)    0.0000                       

(X_U2B.10)     .3992                  (X_U2B.11)   14.5750                      

(X_U2B.12)   14.5750                  (X_U2B.53)   12.6840                      

(X_U2B.54)  -12.6840                  (X_U2B.90)     .9990                      

(X_U2B.91)   40.0000                  (X_U2B.92)  -40.0000                      

(X_U2B.99)    0.0000                  (X_U3A.10)     .1509                      

(X_U3A.11)   14.1510                  (X_U3A.12)   15.0000                      

(X_U3A.53)   12.6840                  (X_U3A.54)  -12.6840                      

(X_U3A.90)  -40.6730                  (X_U3A.91)   40.0000                      

(X_U3A.92)  -40.0000                  (X_U3A.99)    0.0000                      

(X_U3B.10)     .4485                  (X_U3B.11)   15.0000                      

(X_U3B.12)   14.1490                  (X_U3B.53)   12.6840                      

(X_U3B.54)  -12.6840                  (X_U3B.90)   40.6730                      

(X_U3B.91)   40.0000                  (X_U3B.92)  -40.0000                      

(X_U3B.99)    0.0000                  (X_U4A.10)   11.5900                      

(X_U4A.11)   14.5510                  (X_U4A.12)   14.5510                      

(X_U4A.53)   12.6840                  (X_U4A.54)  -12.6840                      

(X_U4A.90)   16.4320                  (X_U4A.91)   40.0000                      

(X_U4A.92)  -40.0000                  (X_U4A.99)    0.0000                  




    VOLTAGE SOURCE CURRENTS
    NAME         CURRENT

    V_V1        -5.241E-02
    V_V2         5.410E-02
    X_U3A.vb     1.601E-04
    X_U3A.vc     2.618E-11
    X_U3A.ve    -3.838E-02
    X_U3A.vlim  -4.067E-02
    X_U3A.vlp   -8.067E-11
    X_U3A.vln    1.609E-04
    X_U3B.vb    -1.604E-04
    X_U3B.vc    -4.008E-02
    X_U3B.ve     2.792E-11
    X_U3B.vlim   4.067E-02
    X_U3B.vlp    1.611E-04
    X_U3B.vln   -8.067E-11
    X_U2B.vb     3.080E-09
    X_U2B.vc     1.603E-11
    X_U2B.ve     1.108E-11
    X_U2B.vlim   9.990E-04
    X_U2B.vlp   -3.900E-11
    X_U2B.vln   -4.100E-11
    X_U4A.vb    -1.176E-08
    X_U4A.vc     1.477E-12
    X_U4A.ve     2.563E-11
    X_U4A.vlim   1.643E-02
    X_U4A.vlp   -2.357E-11
    X_U4A.vln   -5.643E-11

    TOTAL POWER DISSIPATION   1.77E+00  WATTS


**** 05/18/25 15:06:09 **** PSpice 24.1.0 (23 January 2025) *** ID# 0 ********

 ** Profile: "SCHEMATIC1-Analiza_Monte_Carlo"  [ D:\Orcad Work\cdssetup\workspace\projects\draft_proiect_paul\draft_proiect_paul-pspi


 ****     INITIAL TRANSIENT SOLUTION       TEMPERATURE =   27.000 DEG C

                      MONTE CARLO PASS 3

******************************************************************************



 NODE   VOLTAGE     NODE   VOLTAGE     NODE   VOLTAGE     NODE   VOLTAGE


(  OUT)   11.1860  (  VCC)   15.0000  ( -VCC)  -15.0000  (VPRAG)   -3.3458      

(N29296)  -13.4990 (N29340)-2.585E-06 (N29440)   -5.3224 (N29518)  -12.8820     

(N29758)-151.8E-06 (N29892)   11.1860 (N29998)   11.1860 (N30002)     .1967     

(N30028)    3.1386 (N37316)   13.5000 (N37464)    1.9786 (N37483)     .7289     

(N300141)     .5946                   (N300601)     .1967                       

(X_U2B.6) 308.1E-06                   (X_U2B.7)   -3.2962                       

(X_U2B.8)   -3.2962                   (X_U2B.9)    0.0000                       

(X_U3A.6)   16.0130                   (X_U3A.7)  -15.5330                       

(X_U3A.8)  -15.5330                   (X_U3A.9)    0.0000                       

(X_U3B.6)  -16.0280                   (X_U3B.7)   15.5340                       

(X_U3B.8)   15.5340                   (X_U3B.9)    0.0000                       

(X_U4A.6)    -.0012                   (X_U4A.7)   12.0000                       

(X_U4A.8)   12.0000                   (X_U4A.9)    0.0000                       

(X_U2B.10)     .3992                  (X_U2B.11)   14.5750                      

(X_U2B.12)   14.5750                  (X_U2B.53)   12.6840                      

(X_U2B.54)  -12.6840                  (X_U2B.90)     .9915                      

(X_U2B.91)   40.0000                  (X_U2B.92)  -40.0000                      

(X_U2B.99)    0.0000                  (X_U3A.10)     .1509                      

(X_U3A.11)   14.1510                  (X_U3A.12)   15.0000                      

(X_U3A.53)   12.6840                  (X_U3A.54)  -12.6840                      

(X_U3A.90)  -40.6730                  (X_U3A.91)   40.0000                      

(X_U3A.92)  -40.0000                  (X_U3A.99)    0.0000                      

(X_U3B.10)     .3471                  (X_U3B.11)   15.0000                      

(X_U3B.12)   14.1500                  (X_U3B.53)   12.6840                      

(X_U3B.54)  -12.6840                  (X_U3B.90)   40.6730                      

(X_U3B.91)   40.0000                  (X_U3B.92)  -40.0000                      

(X_U3B.99)    0.0000                  (X_U4A.10)   11.5680                      

(X_U4A.11)   14.5510                  (X_U4A.12)   14.5510                      

(X_U4A.53)   12.6840                  (X_U4A.54)  -12.6840                      

(X_U4A.90)   16.2800                  (X_U4A.91)   40.0000                      

(X_U4A.92)  -40.0000                  (X_U4A.99)    0.0000                  




    VOLTAGE SOURCE CURRENTS
    NAME         CURRENT

    V_V1        -5.242E-02
    V_V2         5.410E-02
    X_U3A.vb     1.601E-04
    X_U3A.vc     2.618E-11
    X_U3A.ve    -3.839E-02
    X_U3A.vlim  -4.067E-02
    X_U3A.vlp   -8.067E-11
    X_U3A.vln    1.609E-04
    X_U3B.vb    -1.603E-04
    X_U3B.vc    -4.008E-02
    X_U3B.ve     2.792E-11
    X_U3B.vlim   4.067E-02
    X_U3B.vlp    1.610E-04
    X_U3B.vln   -8.067E-11
    X_U2B.vb     3.081E-09
    X_U2B.vc     1.603E-11
    X_U2B.ve     1.108E-11
    X_U2B.vlim   9.915E-04
    X_U2B.vlp   -3.901E-11
    X_U2B.vln   -4.099E-11
    X_U4A.vb    -1.173E-08
    X_U4A.vc     1.499E-12
    X_U4A.ve     2.561E-11
    X_U4A.vlim   1.628E-02
    X_U4A.vlp   -2.372E-11
    X_U4A.vln   -5.628E-11

    TOTAL POWER DISSIPATION   1.77E+00  WATTS


**** 05/18/25 15:06:09 **** PSpice 24.1.0 (23 January 2025) *** ID# 0 ********

 ** Profile: "SCHEMATIC1-Analiza_Monte_Carlo"  [ D:\Orcad Work\cdssetup\workspace\projects\draft_proiect_paul\draft_proiect_paul-pspi


 ****     INITIAL TRANSIENT SOLUTION       TEMPERATURE =   27.000 DEG C

                      MONTE CARLO PASS 4

******************************************************************************



 NODE   VOLTAGE     NODE   VOLTAGE     NODE   VOLTAGE     NODE   VOLTAGE


(  OUT)   11.1960  (  VCC)   15.0000  ( -VCC)  -15.0000  (VPRAG)   -3.3518      

(N29296)  -13.4990 (N29340)-2.565E-06 (N29440)   -5.3457 (N29518)  -12.8820     

(N29758)-151.1E-06 (N29892)   11.1960 (N29998)   11.1960 (N30002)     .3006     

(N30028)    3.2292 (N37316)   13.5000 (N37464)    1.9812 (N37483)     .7293     

(N300141)     .5924                   (N300601)     .3006                       

(X_U2B.6) 308.7E-06                   (X_U2B.7)   -3.3021                       

(X_U2B.8)   -3.3021                   (X_U2B.9)    0.0000                       

(X_U3A.6)   16.0130                   (X_U3A.7)  -15.5330                       

(X_U3A.8)  -15.5330                   (X_U3A.9)    0.0000                       

(X_U3B.6)  -16.0360                   (X_U3B.7)   15.5340                       

(X_U3B.8)   15.5340                   (X_U3B.9)    0.0000                       

(X_U4A.6)    -.0012                   (X_U4A.7)   12.0220                       

(X_U4A.8)   12.0220                   (X_U4A.9)    0.0000                       

(X_U2B.10)     .3992                  (X_U2B.11)   14.5750                      

(X_U2B.12)   14.5750                  (X_U2B.53)   12.6840                      

(X_U2B.54)  -12.6840                  (X_U2B.90)     .9946                      

(X_U2B.91)   40.0000                  (X_U2B.92)  -40.0000                      

(X_U2B.99)    0.0000                  (X_U3A.10)     .1509                      

(X_U3A.11)   14.1510                  (X_U3A.12)   15.0000                      

(X_U3A.53)   12.6840                  (X_U3A.54)  -12.6840                      

(X_U3A.90)  -40.6730                  (X_U3A.91)   40.0000                      

(X_U3A.92)  -40.0000                  (X_U3A.99)    0.0000                      

(X_U3B.10)     .4508                  (X_U3B.11)   15.0000                      

(X_U3B.12)   14.1490                  (X_U3B.53)   12.6840                      

(X_U3B.54)  -12.6840                  (X_U3B.90)   40.6730                      

(X_U3B.91)   40.0000                  (X_U3B.92)  -40.0000                      

(X_U3B.99)    0.0000                  (X_U4A.10)   11.5790                      

(X_U4A.11)   14.5510                  (X_U4A.12)   14.5510                      

(X_U4A.53)   12.6840                  (X_U4A.54)  -12.6840                      

(X_U4A.90)   16.5230                  (X_U4A.91)   40.0000                      

(X_U4A.92)  -40.0000                  (X_U4A.99)    0.0000                  




    VOLTAGE SOURCE CURRENTS
    NAME         CURRENT

    V_V1        -5.241E-02
    V_V2         5.408E-02
    X_U3A.vb     1.601E-04
    X_U3A.vc     2.618E-11
    X_U3A.ve    -3.840E-02
    X_U3A.vlim  -4.067E-02
    X_U3A.vlp   -8.067E-11
    X_U3A.vln    1.609E-04
    X_U3B.vb    -1.604E-04
    X_U3B.vc    -4.008E-02
    X_U3B.ve     2.792E-11
    X_U3B.vlim   4.067E-02
    X_U3B.vlp    1.611E-04
    X_U3B.vln   -8.067E-11
    X_U2B.vb     3.087E-09
    X_U2B.vc     1.604E-11
    X_U2B.ve     1.107E-11
    X_U2B.vlim   9.946E-04
    X_U2B.vlp   -3.901E-11
    X_U2B.vln   -4.100E-11
    X_U4A.vb    -1.175E-08
    X_U4A.vc     1.489E-12
    X_U4A.ve     2.562E-11
    X_U4A.vlim   1.652E-02
    X_U4A.vlp   -2.348E-11
    X_U4A.vln   -5.652E-11

    TOTAL POWER DISSIPATION   1.77E+00  WATTS


**** 05/18/25 15:06:09 **** PSpice 24.1.0 (23 January 2025) *** ID# 0 ********

 ** Profile: "SCHEMATIC1-Analiza_Monte_Carlo"  [ D:\Orcad Work\cdssetup\workspace\projects\draft_proiect_paul\draft_proiect_paul-pspi


 ****     INITIAL TRANSIENT SOLUTION       TEMPERATURE =   27.000 DEG C

                      MONTE CARLO PASS 5

******************************************************************************



 NODE   VOLTAGE     NODE   VOLTAGE     NODE   VOLTAGE     NODE   VOLTAGE


(  OUT)   11.2230  (  VCC)   15.0000  ( -VCC)  -15.0000  (VPRAG)   -3.3475      

(N29296)  -13.4990 (N29340)-2.580E-06 (N29440)   -5.3474 (N29518)  -12.8820     

(N29758)-151.1E-06 (N29892)   11.2240 (N29998)   11.2240 (N30002)     .3781     

(N30028)    3.3219 (N37316)   13.5000 (N37464)    1.9822 (N37483)     .7295     

(N300141)     .5883                   (N300601)     .3781                       

(X_U2B.6) 308.3E-06                   (X_U2B.7)   -3.2978                       

(X_U2B.8)   -3.2978                   (X_U2B.9)    0.0000                       

(X_U3A.6)   16.0130                   (X_U3A.7)  -15.5330                       

(X_U3A.8)  -15.5330                   (X_U3A.9)    0.0000                       

(X_U3B.6)  -16.0420                   (X_U3B.7)   15.5340                       

(X_U3B.8)   15.5340                   (X_U3B.9)    0.0000                       

(X_U4A.6)    -.0012                   (X_U4A.7)   12.0540                       

(X_U4A.8)   12.0540                   (X_U4A.9)    0.0000                       

(X_U2B.10)     .3992                  (X_U2B.11)   14.5750                      

(X_U2B.12)   14.5750                  (X_U2B.53)   12.6840                      

(X_U2B.54)  -12.6840                  (X_U2B.90)     .9936                      

(X_U2B.91)   40.0000                  (X_U2B.92)  -40.0000                      

(X_U2B.99)    0.0000                  (X_U3A.10)     .1509                      

(X_U3A.11)   14.1510                  (X_U3A.12)   15.0000                      

(X_U3A.53)   12.6840                  (X_U3A.54)  -12.6840                      

(X_U3A.90)  -40.6730                  (X_U3A.91)   40.0000                      

(X_U3A.92)  -40.0000                  (X_U3A.99)    0.0000                      

(X_U3B.10)     .5282                  (X_U3B.11)   15.0000                      

(X_U3B.12)   14.1490                  (X_U3B.53)   12.6840                      

(X_U3B.54)  -12.6840                  (X_U3B.90)   40.6730                      

(X_U3B.91)   40.0000                  (X_U3B.92)  -40.0000                      

(X_U3B.99)    0.0000                  (X_U4A.10)   11.6060                      

(X_U4A.11)   14.5510                  (X_U4A.12)   14.5510                      

(X_U4A.53)   12.6840                  (X_U4A.54)  -12.6840                      

(X_U4A.90)   16.6180                  (X_U4A.91)   40.0000                      

(X_U4A.92)  -40.0000                  (X_U4A.99)    0.0000                  




    VOLTAGE SOURCE CURRENTS
    NAME         CURRENT

    V_V1        -5.241E-02
    V_V2         5.410E-02
    X_U3A.vb     1.601E-04
    X_U3A.vc     2.618E-11
    X_U3A.ve    -3.839E-02
    X_U3A.vlim  -4.067E-02
    X_U3A.vlp   -8.067E-11
    X_U3A.vln    1.609E-04
    X_U3B.vb    -1.604E-04
    X_U3B.vc    -4.009E-02
    X_U3B.ve     2.792E-11
    X_U3B.vlim   4.067E-02
    X_U3B.vlp    1.611E-04
    X_U3B.vln   -8.067E-11
    X_U2B.vb     3.083E-09
    X_U2B.vc     1.603E-11
    X_U2B.ve     1.107E-11
    X_U2B.vlim   9.936E-04
    X_U2B.vlp   -3.901E-11
    X_U2B.vln   -4.099E-11
    X_U4A.vb    -1.179E-08
    X_U4A.vc     1.462E-12
    X_U4A.ve     2.564E-11
    X_U4A.vlim   1.662E-02
    X_U4A.vlp   -2.338E-11
    X_U4A.vln   -5.662E-11

    TOTAL POWER DISSIPATION   1.77E+00  WATTS


**** 05/18/25 15:06:09 **** PSpice 24.1.0 (23 January 2025) *** ID# 0 ********

 ** Profile: "SCHEMATIC1-Analiza_Monte_Carlo"  [ D:\Orcad Work\cdssetup\workspace\projects\draft_proiect_paul\draft_proiect_paul-pspi


 ****     INITIAL TRANSIENT SOLUTION       TEMPERATURE =   27.000 DEG C

                      MONTE CARLO PASS 6

******************************************************************************



 NODE   VOLTAGE     NODE   VOLTAGE     NODE   VOLTAGE     NODE   VOLTAGE


(  OUT)   11.2340  (  VCC)   15.0000  ( -VCC)  -15.0000  (VPRAG)   -3.3559      

(N29296)  -13.4990 (N29340)-2.552E-06 (N29440)   -5.3427 (N29518)  -12.8830     

(N29758)-151.3E-06 (N29892)   11.2340 (N29998)   11.2340 (N30002)     .3143     

(N30028)    3.2427 (N37316)   13.5000 (N37464)    1.9823 (N37483)     .7295     

(N300141)     .5847                   (N300601)     .3143                       

(X_U2B.6) 309.0E-06                   (X_U2B.7)   -3.3058                       

(X_U2B.8)   -3.3058                   (X_U2B.9)    0.0000                       

(X_U3A.6)   16.0130                   (X_U3A.7)  -15.5330                       

(X_U3A.8)  -15.5330                   (X_U3A.9)    0.0000                       

(X_U3B.6)  -16.0370                   (X_U3B.7)   15.5340                       

(X_U3B.8)   15.5340                   (X_U3B.9)    0.0000                       

(X_U4A.6)    -.0012                   (X_U4A.7)   12.0650                       

(X_U4A.8)   12.0650                   (X_U4A.9)    0.0000                       

(X_U2B.10)     .3992                  (X_U2B.11)   14.5750                      

(X_U2B.12)   14.5750                  (X_U2B.53)   12.6840                      

(X_U2B.54)  -12.6840                  (X_U2B.90)    1.0020                      

(X_U2B.91)   40.0000                  (X_U2B.92)  -40.0000                      

(X_U2B.99)    0.0000                  (X_U3A.10)     .1509                      

(X_U3A.11)   14.1510                  (X_U3A.12)   15.0000                      

(X_U3A.53)   12.6840                  (X_U3A.54)  -12.6840                      

(X_U3A.90)  -40.6730                  (X_U3A.91)   40.0000                      

(X_U3A.92)  -40.0000                  (X_U3A.99)    0.0000                      

(X_U3B.10)     .4645                  (X_U3B.11)   15.0000                      

(X_U3B.12)   14.1490                  (X_U3B.53)   12.6840                      

(X_U3B.54)  -12.6840                  (X_U3B.90)   40.6730                      

(X_U3B.91)   40.0000                  (X_U3B.92)  -40.0000                      

(X_U3B.99)    0.0000                  (X_U4A.10)   11.6170                      

(X_U4A.11)   14.5510                  (X_U4A.12)   14.5510                      

(X_U4A.53)   12.6840                  (X_U4A.54)  -12.6840                      

(X_U4A.90)   16.6260                  (X_U4A.91)   40.0000                      

(X_U4A.92)  -40.0000                  (X_U4A.99)    0.0000                  




    VOLTAGE SOURCE CURRENTS
    NAME         CURRENT

    V_V1        -5.240E-02
    V_V2         5.409E-02
    X_U3A.vb     1.601E-04
    X_U3A.vc     2.618E-11
    X_U3A.ve    -3.840E-02
    X_U3A.vlim  -4.067E-02
    X_U3A.vlp   -8.067E-11
    X_U3A.vln    1.609E-04
    X_U3B.vb    -1.604E-04
    X_U3B.vc    -4.009E-02
    X_U3B.ve     2.792E-11
    X_U3B.vlim   4.067E-02
    X_U3B.vlp    1.611E-04
    X_U3B.vln   -8.067E-11
    X_U2B.vb     3.090E-09
    X_U2B.vc     1.604E-11
    X_U2B.ve     1.107E-11
    X_U2B.vlim   1.002E-03
    X_U2B.vlp   -3.900E-11
    X_U2B.vln   -4.100E-11
    X_U4A.vb    -1.180E-08
    X_U4A.vc     1.451E-12
    X_U4A.ve     2.565E-11
    X_U4A.vlim   1.663E-02
    X_U4A.vlp   -2.337E-11
    X_U4A.vln   -5.663E-11

    TOTAL POWER DISSIPATION   1.77E+00  WATTS


**** 05/18/25 15:06:09 **** PSpice 24.1.0 (23 January 2025) *** ID# 0 ********

 ** Profile: "SCHEMATIC1-Analiza_Monte_Carlo"  [ D:\Orcad Work\cdssetup\workspace\projects\draft_proiect_paul\draft_proiect_paul-pspi


 ****     INITIAL TRANSIENT SOLUTION       TEMPERATURE =   27.000 DEG C

                      MONTE CARLO PASS 7

******************************************************************************



 NODE   VOLTAGE     NODE   VOLTAGE     NODE   VOLTAGE     NODE   VOLTAGE


(  OUT)   11.2170  (  VCC)   15.0000  ( -VCC)  -15.0000  (VPRAG)   -3.3502      

(N29296)  -13.4990 (N29340)-2.572E-06 (N29440)   -5.3630 (N29518)  -12.8820     

(N29758)-151.9E-06 (N29892)   11.2180 (N29998)   11.2180 (N30002)     .2227     

(N30028)    3.1695 (N37316)   13.5000 (N37464)    1.9826 (N37483)     .7295     

(N300141)     .5913                   (N300601)     .2227                       

(X_U2B.6) 308.5E-06                   (X_U2B.7)   -3.3001                       

(X_U2B.8)   -3.3001                   (X_U2B.9)    0.0000                       

(X_U3A.6)   16.0130                   (X_U3A.7)  -15.5330                       

(X_U3A.8)  -15.5330                   (X_U3A.9)    0.0000                       

(X_U3B.6)  -16.0300                   (X_U3B.7)   15.5340                       

(X_U3B.8)   15.5340                   (X_U3B.9)    0.0000                       

(X_U4A.6)    -.0012                   (X_U4A.7)   12.0500                       

(X_U4A.8)   12.0500                   (X_U4A.9)    0.0000                       

(X_U2B.10)     .3992                  (X_U2B.11)   14.5750                      

(X_U2B.12)   14.5750                  (X_U2B.53)   12.6840                      

(X_U2B.54)  -12.6840                  (X_U2B.90)    1.0016                      

(X_U2B.91)   40.0000                  (X_U2B.92)  -40.0000                      

(X_U2B.99)    0.0000                  (X_U3A.10)     .1509                      

(X_U3A.11)   14.1510                  (X_U3A.12)   15.0000                      

(X_U3A.53)   12.6840                  (X_U3A.54)  -12.6840                      

(X_U3A.90)  -40.6730                  (X_U3A.91)   40.0000                      

(X_U3A.92)  -40.0000                  (X_U3A.99)    0.0000                      

(X_U3B.10)     .3731                  (X_U3B.11)   15.0000                      

(X_U3B.12)   14.1500                  (X_U3B.53)   12.6840                      

(X_U3B.54)  -12.6840                  (X_U3B.90)   40.6730                      

(X_U3B.91)   40.0000                  (X_U3B.92)  -40.0000                      

(X_U3B.99)    0.0000                  (X_U4A.10)   11.6000                      

(X_U4A.11)   14.5510                  (X_U4A.12)   14.5510                      

(X_U4A.53)   12.6840                  (X_U4A.54)  -12.6840                      

(X_U4A.90)   16.6570                  (X_U4A.91)   40.0000                      

(X_U4A.92)  -40.0000                  (X_U4A.99)    0.0000                  




    VOLTAGE SOURCE CURRENTS
    NAME         CURRENT

    V_V1        -5.241E-02
    V_V2         5.410E-02
    X_U3A.vb     1.601E-04
    X_U3A.vc     2.618E-11
    X_U3A.ve    -3.839E-02
    X_U3A.vlim  -4.067E-02
    X_U3A.vlp   -8.067E-11
    X_U3A.vln    1.609E-04
    X_U3B.vb    -1.603E-04
    X_U3B.vc    -4.008E-02
    X_U3B.ve     2.792E-11
    X_U3B.vlim   4.067E-02
    X_U3B.vlp    1.610E-04
    X_U3B.vln   -8.067E-11
    X_U2B.vb     3.085E-09
    X_U2B.vc     1.604E-11
    X_U2B.ve     1.107E-11
    X_U2B.vlim   1.002E-03
    X_U2B.vlp   -3.900E-11
    X_U2B.vln   -4.100E-11
    X_U4A.vb    -1.178E-08
    X_U4A.vc     1.468E-12
    X_U4A.ve     2.564E-11
    X_U4A.vlim   1.666E-02
    X_U4A.vlp   -2.334E-11
    X_U4A.vln   -5.666E-11

    TOTAL POWER DISSIPATION   1.77E+00  WATTS


**** 05/18/25 15:06:09 **** PSpice 24.1.0 (23 January 2025) *** ID# 0 ********

 ** Profile: "SCHEMATIC1-Analiza_Monte_Carlo"  [ D:\Orcad Work\cdssetup\workspace\projects\draft_proiect_paul\draft_proiect_paul-pspi


 ****     INITIAL TRANSIENT SOLUTION       TEMPERATURE =   27.000 DEG C

                      MONTE CARLO PASS 8

******************************************************************************



 NODE   VOLTAGE     NODE   VOLTAGE     NODE   VOLTAGE     NODE   VOLTAGE


(  OUT)   11.1810  (  VCC)   15.0000  ( -VCC)  -15.0000  (VPRAG)   -3.3465      

(N29296)  -13.4990 (N29340)-2.585E-06 (N29440)   -5.3320 (N29518)  -12.8820     

(N29758)-151.7E-06 (N29892)   11.1810 (N29998)   11.1810 (N30002)     .3097     

(N30028)    3.2316 (N37316)   13.5000 (N37464)    1.9806 (N37483)     .7292     

(N300141)     .5923                   (N300601)     .3097                       

(X_U2B.6) 308.1E-06                   (X_U2B.7)   -3.2966                       

(X_U2B.8)   -3.2966                   (X_U2B.9)    0.0000                       

(X_U3A.6)   16.0130                   (X_U3A.7)  -15.5330                       

(X_U3A.8)  -15.5330                   (X_U3A.9)    0.0000                       

(X_U3B.6)  -16.0370                   (X_U3B.7)   15.5340                       

(X_U3B.8)   15.5340                   (X_U3B.9)    0.0000                       

(X_U4A.6)    -.0012                   (X_U4A.7)   12.0040                       

(X_U4A.8)   12.0040                   (X_U4A.9)    0.0000                       

(X_U2B.10)     .3992                  (X_U2B.11)   14.5750                      

(X_U2B.12)   14.5750                  (X_U2B.53)   12.6840                      

(X_U2B.54)  -12.6840                  (X_U2B.90)     .9994                      

(X_U2B.91)   40.0000                  (X_U2B.92)  -40.0000                      

(X_U2B.99)    0.0000                  (X_U3A.10)     .1509                      

(X_U3A.11)   14.1510                  (X_U3A.12)   15.0000                      

(X_U3A.53)   12.6840                  (X_U3A.54)  -12.6840                      

(X_U3A.90)  -40.6730                  (X_U3A.91)   40.0000                      

(X_U3A.92)  -40.0000                  (X_U3A.99)    0.0000                      

(X_U3B.10)     .4599                  (X_U3B.11)   15.0000                      

(X_U3B.12)   14.1490                  (X_U3B.53)   12.6840                      

(X_U3B.54)  -12.6840                  (X_U3B.90)   40.6730                      

(X_U3B.91)   40.0000                  (X_U3B.92)  -40.0000                      

(X_U3B.99)    0.0000                  (X_U4A.10)   11.5630                      

(X_U4A.11)   14.5510                  (X_U4A.12)   14.5510                      

(X_U4A.53)   12.6840                  (X_U4A.54)  -12.6840                      

(X_U4A.90)   16.4670                  (X_U4A.91)   40.0000                      

(X_U4A.92)  -40.0000                  (X_U4A.99)    0.0000                  




    VOLTAGE SOURCE CURRENTS
    NAME         CURRENT

    V_V1        -5.241E-02
    V_V2         5.410E-02
    X_U3A.vb     1.601E-04
    X_U3A.vc     2.618E-11
    X_U3A.ve    -3.838E-02
    X_U3A.vlim  -4.067E-02
    X_U3A.vlp   -8.067E-11
    X_U3A.vln    1.609E-04
    X_U3B.vb    -1.604E-04
    X_U3B.vc    -4.008E-02
    X_U3B.ve     2.792E-11
    X_U3B.vlim   4.067E-02
    X_U3B.vlp    1.611E-04
    X_U3B.vln   -8.067E-11
    X_U2B.vb     3.081E-09
    X_U2B.vc     1.603E-11
    X_U2B.ve     1.107E-11
    X_U2B.vlim   9.994E-04
    X_U2B.vlp   -3.900E-11
    X_U2B.vln   -4.100E-11
    X_U4A.vb    -1.173E-08
    X_U4A.vc     1.504E-12
    X_U4A.ve     2.560E-11
    X_U4A.vlim   1.647E-02
    X_U4A.vlp   -2.353E-11
    X_U4A.vln   -5.647E-11

    TOTAL POWER DISSIPATION   1.77E+00  WATTS


**** 05/18/25 15:06:09 **** PSpice 24.1.0 (23 January 2025) *** ID# 0 ********

 ** Profile: "SCHEMATIC1-Analiza_Monte_Carlo"  [ D:\Orcad Work\cdssetup\workspace\projects\draft_proiect_paul\draft_proiect_paul-pspi


 ****     INITIAL TRANSIENT SOLUTION       TEMPERATURE =   27.000 DEG C

                      MONTE CARLO PASS 9

******************************************************************************



 NODE   VOLTAGE     NODE   VOLTAGE     NODE   VOLTAGE     NODE   VOLTAGE


(  OUT)   11.2000  (  VCC)   15.0000  ( -VCC)  -15.0000  (VPRAG)   -3.3523      

(N29296)  -13.4990 (N29340)-2.561E-06 (N29440)   -5.3345 (N29518)  -12.8820     

(N29758)-150.8E-06 (N29892)   11.2000 (N29998)   11.2000 (N30002)     .2772     

(N30028)    3.2255 (N37316)   13.5000 (N37464)    1.9818 (N37483)     .7294     

(N300141)     .5861                   (N300601)     .2772                       

(X_U2B.6) 308.8E-06                   (X_U2B.7)   -3.3029                       

(X_U2B.8)   -3.3029                   (X_U2B.9)    0.0000                       

(X_U3A.6)   16.0130                   (X_U3A.7)  -15.5330                       

(X_U3A.8)  -15.5330                   (X_U3A.9)    0.0000                       

(X_U3B.6)  -16.0340                   (X_U3B.7)   15.5340                       

(X_U3B.8)   15.5340                   (X_U3B.9)    0.0000                       

(X_U4A.6)    -.0012                   (X_U4A.7)   12.0290                       

(X_U4A.8)   12.0290                   (X_U4A.9)    0.0000                       

(X_U2B.10)     .3992                  (X_U2B.11)   14.5750                      

(X_U2B.12)   14.5750                  (X_U2B.53)   12.6840                      

(X_U2B.54)  -12.6840                  (X_U2B.90)     .9882                      

(X_U2B.91)   40.0000                  (X_U2B.92)  -40.0000                      

(X_U2B.99)    0.0000                  (X_U3A.10)     .1509                      

(X_U3A.11)   14.1510                  (X_U3A.12)   15.0000                      

(X_U3A.53)   12.6840                  (X_U3A.54)  -12.6840                      

(X_U3A.90)  -40.6730                  (X_U3A.91)   40.0000                      

(X_U3A.92)  -40.0000                  (X_U3A.99)    0.0000                      

(X_U3B.10)     .4274                  (X_U3B.11)   15.0000                      

(X_U3B.12)   14.1490                  (X_U3B.53)   12.6840                      

(X_U3B.54)  -12.6840                  (X_U3B.90)   40.6730                      

(X_U3B.91)   40.0000                  (X_U3B.92)  -40.0000                      

(X_U3B.99)    0.0000                  (X_U4A.10)   11.5830                      

(X_U4A.11)   14.5510                  (X_U4A.12)   14.5510                      

(X_U4A.53)   12.6840                  (X_U4A.54)  -12.6840                      

(X_U4A.90)   16.5870                  (X_U4A.91)   40.0000                      

(X_U4A.92)  -40.0000                  (X_U4A.99)    0.0000                  




    VOLTAGE SOURCE CURRENTS
    NAME         CURRENT

    V_V1        -5.242E-02
    V_V2         5.408E-02
    X_U3A.vb     1.601E-04
    X_U3A.vc     2.618E-11
    X_U3A.ve    -3.840E-02
    X_U3A.vlim  -4.067E-02
    X_U3A.vlp   -8.067E-11
    X_U3A.vln    1.609E-04
    X_U3B.vb    -1.603E-04
    X_U3B.vc    -4.008E-02
    X_U3B.ve     2.792E-11
    X_U3B.vlim   4.067E-02
    X_U3B.vlp    1.611E-04
    X_U3B.vln   -8.067E-11
    X_U2B.vb     3.088E-09
    X_U2B.vc     1.604E-11
    X_U2B.ve     1.107E-11
    X_U2B.vlim   9.882E-04
    X_U2B.vlp   -3.901E-11
    X_U2B.vln   -4.099E-11
    X_U4A.vb    -1.176E-08
    X_U4A.vc     1.485E-12
    X_U4A.ve     2.562E-11
    X_U4A.vlim   1.659E-02
    X_U4A.vlp   -2.341E-11
    X_U4A.vln   -5.659E-11

    TOTAL POWER DISSIPATION   1.77E+00  WATTS


**** 05/18/25 15:06:09 **** PSpice 24.1.0 (23 January 2025) *** ID# 0 ********

 ** Profile: "SCHEMATIC1-Analiza_Monte_Carlo"  [ D:\Orcad Work\cdssetup\workspace\projects\draft_proiect_paul\draft_proiect_paul-pspi


 ****     INITIAL TRANSIENT SOLUTION       TEMPERATURE =   27.000 DEG C

                      MONTE CARLO PASS 10

******************************************************************************



 NODE   VOLTAGE     NODE   VOLTAGE     NODE   VOLTAGE     NODE   VOLTAGE


(  OUT)   11.2200  (  VCC)   15.0000  ( -VCC)  -15.0000  (VPRAG)   -3.3454      

(N29296)  -13.4990 (N29340)-2.586E-06 (N29440)   -5.3381 (N29518)  -12.8820     

(N29758)-152.2E-06 (N29892)   11.2210 (N29998)   11.2210 (N30002)     .3088     

(N30028)    3.2401 (N37316)   13.5000 (N37464)    1.9807 (N37483)     .7292     

(N300141)     .5904                   (N300601)     .3088                       

(X_U2B.6) 308.1E-06                   (X_U2B.7)   -3.2960                       

(X_U2B.8)   -3.2960                   (X_U2B.9)    0.0000                       

(X_U3A.6)   16.0130                   (X_U3A.7)  -15.5330                       

(X_U3A.8)  -15.5330                   (X_U3A.9)    0.0000                       

(X_U3B.6)  -16.0370                   (X_U3B.7)   15.5340                       

(X_U3B.8)   15.5340                   (X_U3B.9)    0.0000                       

(X_U4A.6)    -.0012                   (X_U4A.7)   12.0440                       

(X_U4A.8)   12.0440                   (X_U4A.9)    0.0000                       

(X_U2B.10)     .3992                  (X_U2B.11)   14.5750                      

(X_U2B.12)   14.5750                  (X_U2B.53)   12.6840                      

(X_U2B.54)  -12.6840                  (X_U2B.90)     .9879                      

(X_U2B.91)   40.0000                  (X_U2B.92)  -40.0000                      

(X_U2B.99)    0.0000                  (X_U3A.10)     .1509                      

(X_U3A.11)   14.1510                  (X_U3A.12)   15.0000                      

(X_U3A.53)   12.6840                  (X_U3A.54)  -12.6840                      

(X_U3A.90)  -40.6730                  (X_U3A.91)   40.0000                      

(X_U3A.92)  -40.0000                  (X_U3A.99)    0.0000                      

(X_U3B.10)     .4590                  (X_U3B.11)   15.0000                      

(X_U3B.12)   14.1490                  (X_U3B.53)   12.6840                      

(X_U3B.54)  -12.6840                  (X_U3B.90)   40.6730                      

(X_U3B.91)   40.0000                  (X_U3B.92)  -40.0000                      

(X_U3B.99)    0.0000                  (X_U4A.10)   11.6030                      

(X_U4A.11)   14.5510                  (X_U4A.12)   14.5510                      

(X_U4A.53)   12.6840                  (X_U4A.54)  -12.6840                      

(X_U4A.90)   16.4770                  (X_U4A.91)   40.0000                      

(X_U4A.92)  -40.0000                  (X_U4A.99)    0.0000                  




    VOLTAGE SOURCE CURRENTS
    NAME         CURRENT

    V_V1        -5.241E-02
    V_V2         5.409E-02
    X_U3A.vb     1.601E-04
    X_U3A.vc     2.618E-11
    X_U3A.ve    -3.839E-02
    X_U3A.vlim  -4.067E-02
    X_U3A.vlp   -8.067E-11
    X_U3A.vln    1.609E-04
    X_U3B.vb    -1.604E-04
    X_U3B.vc    -4.009E-02
    X_U3B.ve     2.792E-11
    X_U3B.vlim   4.067E-02
    X_U3B.vlp    1.611E-04
    X_U3B.vln   -8.067E-11
    X_U2B.vb     3.081E-09
    X_U2B.vc     1.603E-11
    X_U2B.ve     1.108E-11
    X_U2B.vlim   9.879E-04
    X_U2B.vlp   -3.901E-11
    X_U2B.vln   -4.099E-11
    X_U4A.vb    -1.177E-08
    X_U4A.vc     1.465E-12
    X_U4A.ve     2.564E-11
    X_U4A.vlim   1.648E-02
    X_U4A.vlp   -2.352E-11
    X_U4A.vln   -5.648E-11

    TOTAL POWER DISSIPATION   1.77E+00  WATTS


**** 05/18/25 15:06:09 **** PSpice 24.1.0 (23 January 2025) *** ID# 0 ********

 ** Profile: "SCHEMATIC1-Analiza_Monte_Carlo"  [ D:\Orcad Work\cdssetup\workspace\projects\draft_proiect_paul\draft_proiect_paul-pspi


 ****     INITIAL TRANSIENT SOLUTION       TEMPERATURE =   27.000 DEG C

                      MONTE CARLO PASS 11

******************************************************************************



 NODE   VOLTAGE     NODE   VOLTAGE     NODE   VOLTAGE     NODE   VOLTAGE


(  OUT)   11.1910  (  VCC)   15.0000  ( -VCC)  -15.0000  (VPRAG)   -3.3467      

(N29296)  -13.4990 (N29340)-2.581E-06 (N29440)   -5.3304 (N29518)  -12.8820     

(N29758)-150.9E-06 (N29892)   11.1910 (N29998)   11.1910 (N30002)     .3263     

(N30028)    3.2785 (N37316)   13.5000 (N37464)    1.9788 (N37483)     .7289     

(N300141)     .5892                   (N300601)     .3263                       

(X_U2B.6) 308.2E-06                   (X_U2B.7)   -3.2972                       

(X_U2B.8)   -3.2972                   (X_U2B.9)    0.0000                       

(X_U3A.6)   16.0130                   (X_U3A.7)  -15.5330                       

(X_U3A.8)  -15.5330                   (X_U3A.9)    0.0000                       

(X_U3B.6)  -16.0380                   (X_U3B.7)   15.5340                       

(X_U3B.8)   15.5340                   (X_U3B.9)    0.0000                       

(X_U4A.6)    -.0012                   (X_U4A.7)   12.0060                       

(X_U4A.8)   12.0060                   (X_U4A.9)    0.0000                       

(X_U2B.10)     .3992                  (X_U2B.11)   14.5750                      

(X_U2B.12)   14.5750                  (X_U2B.53)   12.6840                      

(X_U2B.54)  -12.6840                  (X_U2B.90)     .9893                      

(X_U2B.91)   40.0000                  (X_U2B.92)  -40.0000                      

(X_U2B.99)    0.0000                  (X_U3A.10)     .1509                      

(X_U3A.11)   14.1510                  (X_U3A.12)   15.0000                      

(X_U3A.53)   12.6840                  (X_U3A.54)  -12.6840                      

(X_U3A.90)  -40.6730                  (X_U3A.91)   40.0000                      

(X_U3A.92)  -40.0000                  (X_U3A.99)    0.0000                      

(X_U3B.10)     .4765                  (X_U3B.11)   15.0000                      

(X_U3B.12)   14.1490                  (X_U3B.53)   12.6840                      

(X_U3B.54)  -12.6840                  (X_U3B.90)   40.6730                      

(X_U3B.91)   40.0000                  (X_U3B.92)  -40.0000                      

(X_U3B.99)    0.0000                  (X_U4A.10)   11.5740                      

(X_U4A.11)   14.5510                  (X_U4A.12)   14.5510                      

(X_U4A.53)   12.6840                  (X_U4A.54)  -12.6840                      

(X_U4A.90)   16.3040                  (X_U4A.91)   40.0000                      

(X_U4A.92)  -40.0000                  (X_U4A.99)    0.0000                  




    VOLTAGE SOURCE CURRENTS
    NAME         CURRENT

    V_V1        -5.242E-02
    V_V2         5.410E-02
    X_U3A.vb     1.601E-04
    X_U3A.vc     2.618E-11
    X_U3A.ve    -3.839E-02
    X_U3A.vlim  -4.067E-02
    X_U3A.vlp   -8.067E-11
    X_U3A.vln    1.609E-04
    X_U3B.vb    -1.604E-04
    X_U3B.vc    -4.008E-02
    X_U3B.ve     2.792E-11
    X_U3B.vlim   4.067E-02
    X_U3B.vlp    1.611E-04
    X_U3B.vln   -8.067E-11
    X_U2B.vb     3.082E-09
    X_U2B.vc     1.603E-11
    X_U2B.ve     1.107E-11
    X_U2B.vlim   9.893E-04
    X_U2B.vlp   -3.901E-11
    X_U2B.vln   -4.099E-11
    X_U4A.vb    -1.173E-08
    X_U4A.vc     1.494E-12
    X_U4A.ve     2.561E-11
    X_U4A.vlim   1.630E-02
    X_U4A.vlp   -2.370E-11
    X_U4A.vln   -5.630E-11

    TOTAL POWER DISSIPATION   1.77E+00  WATTS


**** 05/18/25 15:06:09 **** PSpice 24.1.0 (23 January 2025) *** ID# 0 ********

 ** Profile: "SCHEMATIC1-Analiza_Monte_Carlo"  [ D:\Orcad Work\cdssetup\workspace\projects\draft_proiect_paul\draft_proiect_paul-pspi


 ****     INITIAL TRANSIENT SOLUTION       TEMPERATURE =   27.000 DEG C

                      MONTE CARLO PASS 12

******************************************************************************



 NODE   VOLTAGE     NODE   VOLTAGE     NODE   VOLTAGE     NODE   VOLTAGE


(  OUT)   11.2060  (  VCC)   15.0000  ( -VCC)  -15.0000  (VPRAG)   -3.3522      

(N29296)  -13.4990 (N29340)-2.563E-06 (N29440)   -5.3469 (N29518)  -12.8820     

(N29758)-150.7E-06 (N29892)   11.2060 (N29998)   11.2060 (N30002)     .2685     

(N30028)    3.2102 (N37316)   13.5000 (N37464)    1.9806 (N37483)     .7292     

(N300141)     .5842                   (N300601)     .2685                       

(X_U2B.6) 308.7E-06                   (X_U2B.7)   -3.3025                       

(X_U2B.8)   -3.3025                   (X_U2B.9)    0.0000                       

(X_U3A.6)   16.0130                   (X_U3A.7)  -15.5330                       

(X_U3A.8)  -15.5330                   (X_U3A.9)    0.0000                       

(X_U3B.6)  -16.0340                   (X_U3B.7)   15.5340                       

(X_U3B.8)   15.5340                   (X_U3B.9)    0.0000                       

(X_U4A.6)    -.0012                   (X_U4A.7)   12.0300                       

(X_U4A.8)   12.0300                   (X_U4A.9)    0.0000                       

(X_U2B.10)     .3992                  (X_U2B.11)   14.5750                      

(X_U2B.12)   14.5750                  (X_U2B.53)   12.6840                      

(X_U2B.54)  -12.6840                  (X_U2B.90)     .9942                      

(X_U2B.91)   40.0000                  (X_U2B.92)  -40.0000                      

(X_U2B.99)    0.0000                  (X_U3A.10)     .1509                      

(X_U3A.11)   14.1510                  (X_U3A.12)   15.0000                      

(X_U3A.53)   12.6840                  (X_U3A.54)  -12.6840                      

(X_U3A.90)  -40.6730                  (X_U3A.91)   40.0000                      

(X_U3A.92)  -40.0000                  (X_U3A.99)    0.0000                      

(X_U3B.10)     .4187                  (X_U3B.11)   15.0000                      

(X_U3B.12)   14.1490                  (X_U3B.53)   12.6840                      

(X_U3B.54)  -12.6840                  (X_U3B.90)   40.6730                      

(X_U3B.91)   40.0000                  (X_U3B.92)  -40.0000                      

(X_U3B.99)    0.0000                  (X_U4A.10)   11.5890                      

(X_U4A.11)   14.5510                  (X_U4A.12)   14.5510                      

(X_U4A.53)   12.6840                  (X_U4A.54)  -12.6840                      

(X_U4A.90)   16.4700                  (X_U4A.91)   40.0000                      

(X_U4A.92)  -40.0000                  (X_U4A.99)    0.0000                  




    VOLTAGE SOURCE CURRENTS
    NAME         CURRENT

    V_V1        -5.241E-02
    V_V2         5.409E-02
    X_U3A.vb     1.601E-04
    X_U3A.vc     2.618E-11
    X_U3A.ve    -3.840E-02
    X_U3A.vlim  -4.067E-02
    X_U3A.vlp   -8.067E-11
    X_U3A.vln    1.609E-04
    X_U3B.vb    -1.603E-04
    X_U3B.vc    -4.008E-02
    X_U3B.ve     2.792E-11
    X_U3B.vlim   4.067E-02
    X_U3B.vlp    1.610E-04
    X_U3B.vln   -8.067E-11
    X_U2B.vb     3.087E-09
    X_U2B.vc     1.604E-11
    X_U2B.ve     1.107E-11
    X_U2B.vlim   9.942E-04
    X_U2B.vlp   -3.901E-11
    X_U2B.vln   -4.100E-11
    X_U4A.vb    -1.176E-08
    X_U4A.vc     1.479E-12
    X_U4A.ve     2.563E-11
    X_U4A.vlim   1.647E-02
    X_U4A.vlp   -2.353E-11
    X_U4A.vln   -5.647E-11

    TOTAL POWER DISSIPATION   1.77E+00  WATTS


**** 05/18/25 15:06:09 **** PSpice 24.1.0 (23 January 2025) *** ID# 0 ********

 ** Profile: "SCHEMATIC1-Analiza_Monte_Carlo"  [ D:\Orcad Work\cdssetup\workspace\projects\draft_proiect_paul\draft_proiect_paul-pspi


 ****     INITIAL TRANSIENT SOLUTION       TEMPERATURE =   27.000 DEG C

                      MONTE CARLO PASS 13

******************************************************************************



 NODE   VOLTAGE     NODE   VOLTAGE     NODE   VOLTAGE     NODE   VOLTAGE


(  OUT)   11.2240  (  VCC)   15.0000  ( -VCC)  -15.0000  (VPRAG)   -3.3498      

(N29296)  -13.4990 (N29340)-2.573E-06 (N29440)   -5.3597 (N29518)  -12.8820     

(N29758)-151.5E-06 (N29892)   11.2240 (N29998)   11.2240 (N30002)     .3660     

(N30028)    3.3094 (N37316)   13.5000 (N37464)    1.9797 (N37483)     .7291     

(N300141)     .5937                   (N300601)     .3660                       

(X_U2B.6) 308.5E-06                   (X_U2B.7)   -3.2999                       

(X_U2B.8)   -3.2999                   (X_U2B.9)    0.0000                       

(X_U3A.6)   16.0130                   (X_U3A.7)  -15.5330                       

(X_U3A.8)  -15.5330                   (X_U3A.9)    0.0000                       

(X_U3B.6)  -16.0410                   (X_U3B.7)   15.5340                       

(X_U3B.8)   15.5340                   (X_U3B.9)    0.0000                       

(X_U4A.6)    -.0012                   (X_U4A.7)   12.0430                       

(X_U4A.8)   12.0430                   (X_U4A.9)    0.0000                       

(X_U2B.10)     .3992                  (X_U2B.11)   14.5750                      

(X_U2B.12)   14.5750                  (X_U2B.53)   12.6840                      

(X_U2B.54)  -12.6840                  (X_U2B.90)     .9972                      

(X_U2B.91)   40.0000                  (X_U2B.92)  -40.0000                      

(X_U2B.99)    0.0000                  (X_U3A.10)     .1509                      

(X_U3A.11)   14.1510                  (X_U3A.12)   15.0000                      

(X_U3A.53)   12.6840                  (X_U3A.54)  -12.6840                      

(X_U3A.90)  -40.6730                  (X_U3A.91)   40.0000                      

(X_U3A.92)  -40.0000                  (X_U3A.99)    0.0000                      

(X_U3B.10)     .5161                  (X_U3B.11)   15.0000                      

(X_U3B.12)   14.1490                  (X_U3B.53)   12.6840                      

(X_U3B.54)  -12.6840                  (X_U3B.90)   40.6730                      

(X_U3B.91)   40.0000                  (X_U3B.92)  -40.0000                      

(X_U3B.99)    0.0000                  (X_U4A.10)   11.6070                      

(X_U4A.11)   14.5510                  (X_U4A.12)   14.5510                      

(X_U4A.53)   12.6840                  (X_U4A.54)  -12.6840                      

(X_U4A.90)   16.3860                  (X_U4A.91)   40.0000                      

(X_U4A.92)  -40.0000                  (X_U4A.99)    0.0000                  




    VOLTAGE SOURCE CURRENTS
    NAME         CURRENT

    V_V1        -5.241E-02
    V_V2         5.410E-02
    X_U3A.vb     1.601E-04
    X_U3A.vc     2.618E-11
    X_U3A.ve    -3.839E-02
    X_U3A.vlim  -4.067E-02
    X_U3A.vlp   -8.067E-11
    X_U3A.vln    1.609E-04
    X_U3B.vb    -1.604E-04
    X_U3B.vc    -4.008E-02
    X_U3B.ve     2.792E-11
    X_U3B.vlim   4.067E-02
    X_U3B.vlp    1.611E-04
    X_U3B.vln   -8.067E-11
    X_U2B.vb     3.085E-09
    X_U2B.vc     1.603E-11
    X_U2B.ve     1.107E-11
    X_U2B.vlim   9.972E-04
    X_U2B.vlp   -3.900E-11
    X_U2B.vln   -4.100E-11
    X_U4A.vb    -1.177E-08
    X_U4A.vc     1.461E-12
    X_U4A.ve     2.564E-11
    X_U4A.vlim   1.639E-02
    X_U4A.vlp   -2.362E-11
    X_U4A.vln   -5.639E-11

    TOTAL POWER DISSIPATION   1.77E+00  WATTS


**** 05/18/25 15:06:09 **** PSpice 24.1.0 (23 January 2025) *** ID# 0 ********

 ** Profile: "SCHEMATIC1-Analiza_Monte_Carlo"  [ D:\Orcad Work\cdssetup\workspace\projects\draft_proiect_paul\draft_proiect_paul-pspi


 ****     INITIAL TRANSIENT SOLUTION       TEMPERATURE =   27.000 DEG C

                      MONTE CARLO PASS 14

******************************************************************************



 NODE   VOLTAGE     NODE   VOLTAGE     NODE   VOLTAGE     NODE   VOLTAGE


(  OUT)   11.2140  (  VCC)   15.0000  ( -VCC)  -15.0000  (VPRAG)   -3.3466      

(N29296)  -13.4990 (N29340)-2.582E-06 (N29440)   -5.3229 (N29518)  -12.8820     

(N29758)-150.3E-06 (N29892)   11.2140 (N29998)   11.2140 (N30002)     .2128     

(N30028)    3.1488 (N37316)   13.5000 (N37464)    1.9823 (N37483)     .7295     

(N300141)     .5880                   (N300601)     .2128                       

(X_U2B.6) 308.2E-06                   (X_U2B.7)   -3.2971                       

(X_U2B.8)   -3.2971                   (X_U2B.9)    0.0000                       

(X_U3A.6)   16.0130                   (X_U3A.7)  -15.5330                       

(X_U3A.8)  -15.5330                   (X_U3A.9)    0.0000                       

(X_U3B.6)  -16.0290                   (X_U3B.7)   15.5340                       

(X_U3B.8)   15.5340                   (X_U3B.9)    0.0000                       

(X_U4A.6)    -.0012                   (X_U4A.7)   12.0450                       

(X_U4A.8)   12.0450                   (X_U4A.9)    0.0000                       

(X_U2B.10)     .3992                  (X_U2B.11)   14.5750                      

(X_U2B.12)   14.5750                  (X_U2B.53)   12.6840                      

(X_U2B.54)  -12.6840                  (X_U2B.90)     .9892                      

(X_U2B.91)   40.0000                  (X_U2B.92)  -40.0000                      

(X_U2B.99)    0.0000                  (X_U3A.10)     .1509                      

(X_U3A.11)   14.1510                  (X_U3A.12)   15.0000                      

(X_U3A.53)   12.6840                  (X_U3A.54)  -12.6840                      

(X_U3A.90)  -40.6730                  (X_U3A.91)   40.0000                      

(X_U3A.92)  -40.0000                  (X_U3A.99)    0.0000                      

(X_U3B.10)     .3632                  (X_U3B.11)   15.0000                      

(X_U3B.12)   14.1500                  (X_U3B.53)   12.6840                      

(X_U3B.54)  -12.6840                  (X_U3B.90)   40.6730                      

(X_U3B.91)   40.0000                  (X_U3B.92)  -40.0000                      

(X_U3B.99)    0.0000                  (X_U4A.10)   11.5970                      

(X_U4A.11)   14.5510                  (X_U4A.12)   14.5510                      

(X_U4A.53)   12.6840                  (X_U4A.54)  -12.6840                      

(X_U4A.90)   16.6260                  (X_U4A.91)   40.0000                      

(X_U4A.92)  -40.0000                  (X_U4A.99)    0.0000                  




    VOLTAGE SOURCE CURRENTS
    NAME         CURRENT

    V_V1        -5.241E-02
    V_V2         5.409E-02
    X_U3A.vb     1.601E-04
    X_U3A.vc     2.618E-11
    X_U3A.ve    -3.839E-02
    X_U3A.vlim  -4.067E-02
    X_U3A.vlp   -8.067E-11
    X_U3A.vln    1.609E-04
    X_U3B.vb    -1.603E-04
    X_U3B.vc    -4.009E-02
    X_U3B.ve     2.792E-11
    X_U3B.vlim   4.067E-02
    X_U3B.vlp    1.610E-04
    X_U3B.vln   -8.067E-11
    X_U2B.vb     3.082E-09
    X_U2B.vc     1.603E-11
    X_U2B.ve     1.107E-11
    X_U2B.vlim   9.892E-04
    X_U2B.vlp   -3.901E-11
    X_U2B.vln   -4.099E-11
    X_U4A.vb    -1.178E-08
    X_U4A.vc     1.471E-12
    X_U4A.ve     2.564E-11
    X_U4A.vlim   1.663E-02
    X_U4A.vlp   -2.337E-11
    X_U4A.vln   -5.663E-11

    TOTAL POWER DISSIPATION   1.77E+00  WATTS


**** 05/18/25 15:06:09 **** PSpice 24.1.0 (23 January 2025) *** ID# 0 ********

 ** Profile: "SCHEMATIC1-Analiza_Monte_Carlo"  [ D:\Orcad Work\cdssetup\workspace\projects\draft_proiect_paul\draft_proiect_paul-pspi


 ****     INITIAL TRANSIENT SOLUTION       TEMPERATURE =   27.000 DEG C

                      MONTE CARLO PASS 15

******************************************************************************



 NODE   VOLTAGE     NODE   VOLTAGE     NODE   VOLTAGE     NODE   VOLTAGE


(  OUT)   11.2120  (  VCC)   15.0000  ( -VCC)  -15.0000  (VPRAG)   -3.3448      

(N29296)  -13.4990 (N29340)-2.591E-06 (N29440)   -5.3379 (N29518)  -12.8820     

(N29758)-151.9E-06 (N29892)   11.2120 (N29998)   11.2120 (N30002)     .2176     

(N30028)    3.1649 (N37316)   13.5000 (N37464)    1.9803 (N37483)     .7292     

(N300141)     .5845                   (N300601)     .2176                       

(X_U2B.6) 308.0E-06                   (X_U2B.7)   -3.2947                       

(X_U2B.8)   -3.2947                   (X_U2B.9)    0.0000                       

(X_U3A.6)   16.0130                   (X_U3A.7)  -15.5330                       

(X_U3A.8)  -15.5330                   (X_U3A.9)    0.0000                       

(X_U3B.6)  -16.0300                   (X_U3B.7)   15.5340                       

(X_U3B.8)   15.5340                   (X_U3B.9)    0.0000                       

(X_U4A.6)    -.0012                   (X_U4A.7)   12.0340                       

(X_U4A.8)   12.0340                   (X_U4A.9)    0.0000                       

(X_U2B.10)     .3992                  (X_U2B.11)   14.5750                      

(X_U2B.12)   14.5750                  (X_U2B.53)   12.6840                      

(X_U2B.54)  -12.6840                  (X_U2B.90)    1.0006                      

(X_U2B.91)   40.0000                  (X_U2B.92)  -40.0000                      

(X_U2B.99)    0.0000                  (X_U3A.10)     .1509                      

(X_U3A.11)   14.1510                  (X_U3A.12)   15.0000                      

(X_U3A.53)   12.6840                  (X_U3A.54)  -12.6840                      

(X_U3A.90)  -40.6730                  (X_U3A.91)   40.0000                      

(X_U3A.92)  -40.0000                  (X_U3A.99)    0.0000                      

(X_U3B.10)     .3680                  (X_U3B.11)   15.0000                      

(X_U3B.12)   14.1500                  (X_U3B.53)   12.6840                      

(X_U3B.54)  -12.6840                  (X_U3B.90)   40.6730                      

(X_U3B.91)   40.0000                  (X_U3B.92)  -40.0000                      

(X_U3B.99)    0.0000                  (X_U4A.10)   11.5940                      

(X_U4A.11)   14.5510                  (X_U4A.12)   14.5510                      

(X_U4A.53)   12.6840                  (X_U4A.54)  -12.6840                      

(X_U4A.90)   16.4410                  (X_U4A.91)   40.0000                      

(X_U4A.92)  -40.0000                  (X_U4A.99)    0.0000                  




    VOLTAGE SOURCE CURRENTS
    NAME         CURRENT

    V_V1        -5.241E-02
    V_V2         5.411E-02
    X_U3A.vb     1.601E-04
    X_U3A.vc     2.618E-11
    X_U3A.ve    -3.838E-02
    X_U3A.vlim  -4.067E-02
    X_U3A.vlp   -8.067E-11
    X_U3A.vln    1.609E-04
    X_U3B.vb    -1.603E-04
    X_U3B.vc    -4.009E-02
    X_U3B.ve     2.792E-11
    X_U3B.vlim   4.067E-02
    X_U3B.vlp    1.610E-04
    X_U3B.vln   -8.067E-11
    X_U2B.vb     3.080E-09
    X_U2B.vc     1.603E-11
    X_U2B.ve     1.108E-11
    X_U2B.vlim   1.001E-03
    X_U2B.vlp   -3.900E-11
    X_U2B.vln   -4.100E-11
    X_U4A.vb    -1.176E-08
    X_U4A.vc     1.473E-12
    X_U4A.ve     2.563E-11
    X_U4A.vlim   1.644E-02
    X_U4A.vlp   -2.356E-11
    X_U4A.vln   -5.644E-11

    TOTAL POWER DISSIPATION   1.77E+00  WATTS


**** 05/18/25 15:06:09 **** PSpice 24.1.0 (23 January 2025) *** ID# 0 ********

 ** Profile: "SCHEMATIC1-Analiza_Monte_Carlo"  [ D:\Orcad Work\cdssetup\workspace\projects\draft_proiect_paul\draft_proiect_paul-pspi


 ****     INITIAL TRANSIENT SOLUTION       TEMPERATURE =   27.000 DEG C

                      MONTE CARLO PASS 16

******************************************************************************



 NODE   VOLTAGE     NODE   VOLTAGE     NODE   VOLTAGE     NODE   VOLTAGE


(  OUT)   11.2040  (  VCC)   15.0000  ( -VCC)  -15.0000  (VPRAG)   -3.3414      

(N29296)  -13.4990 (N29340)-2.602E-06 (N29440)   -5.3366 (N29518)  -12.8820     

(N29758)-151.7E-06 (N29892)   11.2040 (N29998)   11.2040 (N30002)     .2528     

(N30028)    3.1994 (N37316)   13.5000 (N37464)    1.9790 (N37483)     .7290     

(N300141)     .5894                   (N300601)     .2528                       

(X_U2B.6) 307.7E-06                   (X_U2B.7)   -3.2915                       

(X_U2B.8)   -3.2915                   (X_U2B.9)    0.0000                       

(X_U3A.6)   16.0130                   (X_U3A.7)  -15.5330                       

(X_U3A.8)  -15.5330                   (X_U3A.9)    0.0000                       

(X_U3B.6)  -16.0320                   (X_U3B.7)   15.5340                       

(X_U3B.8)   15.5340                   (X_U3B.9)    0.0000                       

(X_U4A.6)    -.0012                   (X_U4A.7)   12.0200                       

(X_U4A.8)   12.0200                   (X_U4A.9)    0.0000                       

(X_U2B.10)     .3992                  (X_U2B.11)   14.5750                      

(X_U2B.12)   14.5750                  (X_U2B.53)   12.6840                      

(X_U2B.54)  -12.6840                  (X_U2B.90)     .9967                      

(X_U2B.91)   40.0000                  (X_U2B.92)  -40.0000                      

(X_U2B.99)    0.0000                  (X_U3A.10)     .1509                      

(X_U3A.11)   14.1510                  (X_U3A.12)   15.0000                      

(X_U3A.53)   12.6840                  (X_U3A.54)  -12.6840                      

(X_U3A.90)  -40.6730                  (X_U3A.91)   40.0000                      

(X_U3A.92)  -40.0000                  (X_U3A.99)    0.0000                      

(X_U3B.10)     .4031                  (X_U3B.11)   15.0000                      

(X_U3B.12)   14.1490                  (X_U3B.53)   12.6840                      

(X_U3B.54)  -12.6840                  (X_U3B.90)   40.6730                      

(X_U3B.91)   40.0000                  (X_U3B.92)  -40.0000                      

(X_U3B.99)    0.0000                  (X_U4A.10)   11.5870                      

(X_U4A.11)   14.5510                  (X_U4A.12)   14.5510                      

(X_U4A.53)   12.6840                  (X_U4A.54)  -12.6840                      

(X_U4A.90)   16.3230                  (X_U4A.91)   40.0000                      

(X_U4A.92)  -40.0000                  (X_U4A.99)    0.0000                  




    VOLTAGE SOURCE CURRENTS
    NAME         CURRENT

    V_V1        -5.241E-02
    V_V2         5.411E-02
    X_U3A.vb     1.601E-04
    X_U3A.vc     2.618E-11
    X_U3A.ve    -3.838E-02
    X_U3A.vlim  -4.067E-02
    X_U3A.vlp   -8.067E-11
    X_U3A.vln    1.609E-04
    X_U3B.vb    -1.603E-04
    X_U3B.vc    -4.009E-02
    X_U3B.ve     2.792E-11
    X_U3B.vlim   4.067E-02
    X_U3B.vlp    1.610E-04
    X_U3B.vln   -8.067E-11
    X_U2B.vb     3.077E-09
    X_U2B.vc     1.603E-11
    X_U2B.ve     1.108E-11
    X_U2B.vlim   9.967E-04
    X_U2B.vlp   -3.900E-11
    X_U2B.vln   -4.100E-11
    X_U4A.vb    -1.175E-08
    X_U4A.vc     1.481E-12
    X_U4A.ve     2.562E-11
    X_U4A.vlim   1.632E-02
    X_U4A.vlp   -2.368E-11
    X_U4A.vln   -5.632E-11

    TOTAL POWER DISSIPATION   1.77E+00  WATTS


**** 05/18/25 15:06:09 **** PSpice 24.1.0 (23 January 2025) *** ID# 0 ********

 ** Profile: "SCHEMATIC1-Analiza_Monte_Carlo"  [ D:\Orcad Work\cdssetup\workspace\projects\draft_proiect_paul\draft_proiect_paul-pspi


 ****     INITIAL TRANSIENT SOLUTION       TEMPERATURE =   27.000 DEG C

                      MONTE CARLO PASS 17

******************************************************************************



 NODE   VOLTAGE     NODE   VOLTAGE     NODE   VOLTAGE     NODE   VOLTAGE


(  OUT)   11.1870  (  VCC)   15.0000  ( -VCC)  -15.0000  (VPRAG)   -3.3536      

(N29296)  -13.4990 (N29340)-2.558E-06 (N29440)   -5.3388 (N29518)  -12.8820     

(N29758)-150.1E-06 (N29892)   11.1870 (N29998)   11.1870 (N30002)     .3280     

(N30028)    3.2712 (N37316)   13.5000 (N37464)    1.9788 (N37483)     .7289     

(N300141)     .5924                   (N300601)     .3280                       

(X_U2B.6) 308.8E-06                   (X_U2B.7)   -3.3039                       

(X_U2B.8)   -3.3039                   (X_U2B.9)    0.0000                       

(X_U3A.6)   16.0130                   (X_U3A.7)  -15.5330                       

(X_U3A.8)  -15.5330                   (X_U3A.9)    0.0000                       

(X_U3B.6)  -16.0380                   (X_U3B.7)   15.5340                       

(X_U3B.8)   15.5340                   (X_U3B.9)    0.0000                       

(X_U4A.6)    -.0012                   (X_U4A.7)   12.0020                       

(X_U4A.8)   12.0020                   (X_U4A.9)    0.0000                       

(X_U2B.10)     .3992                  (X_U2B.11)   14.5750                      

(X_U2B.12)   14.5750                  (X_U2B.53)   12.6840                      

(X_U2B.54)  -12.6840                  (X_U2B.90)     .9948                      

(X_U2B.91)   40.0000                  (X_U2B.92)  -40.0000                      

(X_U2B.99)    0.0000                  (X_U3A.10)     .1509                      

(X_U3A.11)   14.1510                  (X_U3A.12)   15.0000                      

(X_U3A.53)   12.6840                  (X_U3A.54)  -12.6840                      

(X_U3A.90)  -40.6730                  (X_U3A.91)   40.0000                      

(X_U3A.92)  -40.0000                  (X_U3A.99)    0.0000                      

(X_U3B.10)     .4782                  (X_U3B.11)   15.0000                      

(X_U3B.12)   14.1490                  (X_U3B.53)   12.6840                      

(X_U3B.54)  -12.6840                  (X_U3B.90)   40.6730                      

(X_U3B.91)   40.0000                  (X_U3B.92)  -40.0000                      

(X_U3B.99)    0.0000                  (X_U4A.10)   11.5700                      

(X_U4A.11)   14.5510                  (X_U4A.12)   14.5510                      

(X_U4A.53)   12.6840                  (X_U4A.54)  -12.6840                      

(X_U4A.90)   16.2990                  (X_U4A.91)   40.0000                      

(X_U4A.92)  -40.0000                  (X_U4A.99)    0.0000                  




    VOLTAGE SOURCE CURRENTS
    NAME         CURRENT

    V_V1        -5.242E-02
    V_V2         5.409E-02
    X_U3A.vb     1.601E-04
    X_U3A.vc     2.618E-11
    X_U3A.ve    -3.840E-02
    X_U3A.vlim  -4.067E-02
    X_U3A.vlp   -8.067E-11
    X_U3A.vln    1.609E-04
    X_U3B.vb    -1.604E-04
    X_U3B.vc    -4.008E-02
    X_U3B.ve     2.792E-11
    X_U3B.vlim   4.067E-02
    X_U3B.vlp    1.611E-04
    X_U3B.vln   -8.067E-11
    X_U2B.vb     3.088E-09
    X_U2B.vc     1.604E-11
    X_U2B.ve     1.107E-11
    X_U2B.vlim   9.948E-04
    X_U2B.vlp   -3.901E-11
    X_U2B.vln   -4.100E-11
    X_U4A.vb    -1.173E-08
    X_U4A.vc     1.498E-12
    X_U4A.ve     2.561E-11
    X_U4A.vlim   1.630E-02
    X_U4A.vlp   -2.370E-11
    X_U4A.vln   -5.630E-11

    TOTAL POWER DISSIPATION   1.77E+00  WATTS


**** 05/18/25 15:06:09 **** PSpice 24.1.0 (23 January 2025) *** ID# 0 ********

 ** Profile: "SCHEMATIC1-Analiza_Monte_Carlo"  [ D:\Orcad Work\cdssetup\workspace\projects\draft_proiect_paul\draft_proiect_paul-pspi


 ****     INITIAL TRANSIENT SOLUTION       TEMPERATURE =   27.000 DEG C

                      MONTE CARLO PASS 18

******************************************************************************



 NODE   VOLTAGE     NODE   VOLTAGE     NODE   VOLTAGE     NODE   VOLTAGE


(  OUT)   11.2130  (  VCC)   15.0000  ( -VCC)  -15.0000  (VPRAG)   -3.3539      

(N29296)  -13.4990 (N29340)-2.556E-06 (N29440)   -5.3465 (N29518)  -12.8830     

(N29758)-152.6E-06 (N29892)   11.2140 (N29998)   11.2140 (N30002)     .2898     

(N30028)    3.2313 (N37316)   13.5000 (N37464)    1.9820 (N37483)     .7294     

(N300141)     .5917                   (N300601)     .2898                       

(X_U2B.6) 308.9E-06                   (X_U2B.7)   -3.3045                       

(X_U2B.8)   -3.3045                   (X_U2B.9)    0.0000                       

(X_U3A.6)   16.0130                   (X_U3A.7)  -15.5330                       

(X_U3A.8)  -15.5330                   (X_U3A.9)    0.0000                       

(X_U3B.6)  -16.0350                   (X_U3B.7)   15.5340                       

(X_U3B.8)   15.5340                   (X_U3B.9)    0.0000                       

(X_U4A.6)    -.0012                   (X_U4A.7)   12.0430                       

(X_U4A.8)   12.0430                   (X_U4A.9)    0.0000                       

(X_U2B.10)     .3992                  (X_U2B.11)   14.5750                      

(X_U2B.12)   14.5750                  (X_U2B.53)   12.6840                      

(X_U2B.54)  -12.6840                  (X_U2B.90)     .9883                      

(X_U2B.91)   40.0000                  (X_U2B.92)  -40.0000                      

(X_U2B.99)    0.0000                  (X_U3A.10)     .1509                      

(X_U3A.11)   14.1510                  (X_U3A.12)   15.0000                      

(X_U3A.53)   12.6840                  (X_U3A.54)  -12.6840                      

(X_U3A.90)  -40.6730                  (X_U3A.91)   40.0000                      

(X_U3A.92)  -40.0000                  (X_U3A.99)    0.0000                      

(X_U3B.10)     .4400                  (X_U3B.11)   15.0000                      

(X_U3B.12)   14.1490                  (X_U3B.53)   12.6840                      

(X_U3B.54)  -12.6840                  (X_U3B.90)   40.6730                      

(X_U3B.91)   40.0000                  (X_U3B.92)  -40.0000                      

(X_U3B.99)    0.0000                  (X_U4A.10)   11.5960                      

(X_U4A.11)   14.5510                  (X_U4A.12)   14.5510                      

(X_U4A.53)   12.6840                  (X_U4A.54)  -12.6840                      

(X_U4A.90)   16.6000                  (X_U4A.91)   40.0000                      

(X_U4A.92)  -40.0000                  (X_U4A.99)    0.0000                  




    VOLTAGE SOURCE CURRENTS
    NAME         CURRENT

    V_V1        -5.241E-02
    V_V2         5.408E-02
    X_U3A.vb     1.601E-04
    X_U3A.vc     2.618E-11
    X_U3A.ve    -3.841E-02
    X_U3A.vlim  -4.067E-02
    X_U3A.vlp   -8.067E-11
    X_U3A.vln    1.609E-04
    X_U3B.vb    -1.604E-04
    X_U3B.vc    -4.008E-02
    X_U3B.ve     2.792E-11
    X_U3B.vlim   4.067E-02
    X_U3B.vlp    1.611E-04
    X_U3B.vln   -8.067E-11
    X_U2B.vb     3.089E-09
    X_U2B.vc     1.604E-11
    X_U2B.ve     1.107E-11
    X_U2B.vlim   9.883E-04
    X_U2B.vlp   -3.901E-11
    X_U2B.vln   -4.099E-11
    X_U4A.vb    -1.177E-08
    X_U4A.vc     1.472E-12
    X_U4A.ve     2.563E-11
    X_U4A.vlim   1.660E-02
    X_U4A.vlp   -2.340E-11
    X_U4A.vln   -5.660E-11

    TOTAL POWER DISSIPATION   1.77E+00  WATTS


**** 05/18/25 15:06:09 **** PSpice 24.1.0 (23 January 2025) *** ID# 0 ********

 ** Profile: "SCHEMATIC1-Analiza_Monte_Carlo"  [ D:\Orcad Work\cdssetup\workspace\projects\draft_proiect_paul\draft_proiect_paul-pspi


 ****     INITIAL TRANSIENT SOLUTION       TEMPERATURE =   27.000 DEG C

                      MONTE CARLO PASS 19

******************************************************************************



 NODE   VOLTAGE     NODE   VOLTAGE     NODE   VOLTAGE     NODE   VOLTAGE


(  OUT)   11.1890  (  VCC)   15.0000  ( -VCC)  -15.0000  (VPRAG)   -3.3495      

(N29296)  -13.4990 (N29340)-2.571E-06 (N29440)   -5.3225 (N29518)  -12.8820     

(N29758)-151.8E-06 (N29892)   11.1900 (N29998)   11.1900 (N30002)     .2820     

(N30028)    3.2176 (N37316)   13.5000 (N37464)    1.9791 (N37483)     .7290     

(N300141)     .5920                   (N300601)     .2820                       

(X_U2B.6) 308.5E-06                   (X_U2B.7)   -3.3001                       

(X_U2B.8)   -3.3001                   (X_U2B.9)    0.0000                       

(X_U3A.6)   16.0130                   (X_U3A.7)  -15.5330                       

(X_U3A.8)  -15.5330                   (X_U3A.9)    0.0000                       

(X_U3B.6)  -16.0350                   (X_U3B.7)   15.5340                       

(X_U3B.8)   15.5340                   (X_U3B.9)    0.0000                       

(X_U4A.6)    -.0012                   (X_U4A.7)   12.0060                       

(X_U4A.8)   12.0060                   (X_U4A.9)    0.0000                       

(X_U2B.10)     .3992                  (X_U2B.11)   14.5750                      

(X_U2B.12)   14.5750                  (X_U2B.53)   12.6840                      

(X_U2B.54)  -12.6840                  (X_U2B.90)     .9889                      

(X_U2B.91)   40.0000                  (X_U2B.92)  -40.0000                      

[...]

(X_U3B.8)   15.5340                   (X_U3B.9)    0.0000                       

(X_U4A.6)    -.0012                   (X_U4A.7)   12.0220                       

(X_U4A.8)   12.0220                   (X_U4A.9)    0.0000                       

(X_U2B.10)     .3992                  (X_U2B.11)   14.5750                      

(X_U2B.12)   14.5750                  (X_U2B.53)   12.6840                      

(X_U2B.54)  -12.6840                  (X_U2B.90)     .9978                      

(X_U2B.91)   40.0000                  (X_U2B.92)  -40.0000                      

(X_U2B.99)    0.0000                  (X_U3A.10)     .1509                      

(X_U3A.11)   14.1510                  (X_U3A.12)   15.0000                      

(X_U3A.53)   12.6840                  (X_U3A.54)  -12.6840                      

(X_U3A.90)  -40.6730                  (X_U3A.91)   40.0000                      

(X_U3A.92)  -40.0000                  (X_U3A.99)    0.0000                      

(X_U3B.10)     .4561                  (X_U3B.11)   15.0000                      

(X_U3B.12)   14.1490                  (X_U3B.53)   12.6840                      

(X_U3B.54)  -12.6840                  (X_U3B.90)   40.6730                      

(X_U3B.91)   40.0000                  (X_U3B.92)  -40.0000                      

(X_U3B.99)    0.0000                  (X_U4A.10)   11.5750                      

(X_U4A.11)   14.5510                  (X_U4A.12)   14.5510                      

(X_U4A.53)   12.6840                  (X_U4A.54)  -12.6840                      

(X_U4A.90)   16.5850                  (X_U4A.91)   40.0000                      

(X_U4A.92)  -40.0000                  (X_U4A.99)    0.0000                  




    VOLTAGE SOURCE CURRENTS
    NAME         CURRENT

    V_V1        -5.241E-02
    V_V2         5.410E-02
    X_U3A.vb     1.601E-04
    X_U3A.vc     2.618E-11
    X_U3A.ve    -3.839E-02
    X_U3A.vlim  -4.067E-02
    X_U3A.vlp   -8.067E-11
    X_U3A.vln    1.609E-04
    X_U3B.vb    -1.604E-04
    X_U3B.vc    -4.008E-02
    X_U3B.ve     2.792E-11
    X_U3B.vlim   4.067E-02
    X_U3B.vlp    1.611E-04
    X_U3B.vln   -8.067E-11
    X_U2B.vb     3.084E-09
    X_U2B.vc     1.603E-11
    X_U2B.ve     1.107E-11
    X_U2B.vlim   9.978E-04
    X_U2B.vlp   -3.900E-11
    X_U2B.vln   -4.100E-11
    X_U4A.vb    -1.175E-08
    X_U4A.vc     1.492E-12
    X_U4A.ve     2.561E-11
    X_U4A.vlim   1.659E-02
    X_U4A.vlp   -2.342E-11
    X_U4A.vln   -5.659E-11

    TOTAL POWER DISSIPATION   1.77E+00  WATTS


**** 05/18/25 15:06:09 **** PSpice 24.1.0 (23 January 2025) *** ID# 0 ********

 ** Profile: "SCHEMATIC1-Analiza_Monte_Carlo"  [ D:\Orcad Work\cdssetup\workspace\projects\draft_proiect_paul\draft_proiect_paul-pspi


 ****     INITIAL TRANSIENT SOLUTION       TEMPERATURE =   27.000 DEG C

                      MONTE CARLO PASS 100

******************************************************************************



 NODE   VOLTAGE     NODE   VOLTAGE     NODE   VOLTAGE     NODE   VOLTAGE


(  OUT)   11.1980  (  VCC)   15.0000  ( -VCC)  -15.0000  (VPRAG)   -3.3505      

(N29296)  -13.4990 (N29340)-2.570E-06 (N29440)   -5.3290 (N29518)  -12.8820     

(N29758)-149.9E-06 (N29892)   11.1980 (N29998)   11.1980 (N30002)     .2580     

(N30028)    3.1879 (N37316)   13.5000 (N37464)    1.9800 (N37483)     .7291     

(N300141)     .5904                   (N300601)     .2580                       

(X_U2B.6) 308.5E-06                   (X_U2B.7)   -3.3007                       

(X_U2B.8)   -3.3007                   (X_U2B.9)    0.0000                       

(X_U3A.6)   16.0130                   (X_U3A.7)  -15.5330                       

(X_U3A.8)  -15.5330                   (X_U3A.9)    0.0000                       

(X_U3B.6)  -16.0330                   (X_U3B.7)   15.5340                       

(X_U3B.8)   15.5340                   (X_U3B.9)    0.0000                       

(X_U4A.6)    -.0012                   (X_U4A.7)   12.0180                       

(X_U4A.8)   12.0180                   (X_U4A.9)    0.0000                       

(X_U2B.10)     .3992                  (X_U2B.11)   14.5750                      

(X_U2B.12)   14.5750                  (X_U2B.53)   12.6840                      

(X_U2B.54)  -12.6840                  (X_U2B.90)     .9954                      

(X_U2B.91)   40.0000                  (X_U2B.92)  -40.0000                      

(X_U2B.99)    0.0000                  (X_U3A.10)     .1509                      

(X_U3A.11)   14.1510                  (X_U3A.12)   15.0000                      

(X_U3A.53)   12.6840                  (X_U3A.54)  -12.6840                      

(X_U3A.90)  -40.6730                  (X_U3A.91)   40.0000                      

(X_U3A.92)  -40.0000                  (X_U3A.99)    0.0000                      

(X_U3B.10)     .4083                  (X_U3B.11)   15.0000                      

(X_U3B.12)   14.1490                  (X_U3B.53)   12.6840                      

(X_U3B.54)  -12.6840                  (X_U3B.90)   40.6730                      

(X_U3B.91)   40.0000                  (X_U3B.92)  -40.0000                      

(X_U3B.99)    0.0000                  (X_U4A.10)   11.5800                      

(X_U4A.11)   14.5510                  (X_U4A.12)   14.5510                      

(X_U4A.53)   12.6840                  (X_U4A.54)  -12.6840                      

(X_U4A.90)   16.4180                  (X_U4A.91)   40.0000                      

(X_U4A.92)  -40.0000                  (X_U4A.99)    0.0000                  




    VOLTAGE SOURCE CURRENTS
    NAME         CURRENT

    V_V1        -5.241E-02
    V_V2         5.409E-02
    X_U3A.vb     1.601E-04
    X_U3A.vc     2.618E-11
    X_U3A.ve    -3.839E-02
    X_U3A.vlim  -4.067E-02
    X_U3A.vlp   -8.067E-11
    X_U3A.vln    1.609E-04
    X_U3B.vb    -1.603E-04
    X_U3B.vc    -4.008E-02
    X_U3B.ve     2.792E-11
    X_U3B.vlim   4.067E-02
    X_U3B.vlp    1.610E-04
    X_U3B.vln   -8.067E-11
    X_U2B.vb     3.085E-09
    X_U2B.vc     1.604E-11
    X_U2B.ve     1.107E-11
    X_U2B.vlim   9.954E-04
    X_U2B.vlp   -3.901E-11
    X_U2B.vln   -4.100E-11
    X_U4A.vb    -1.175E-08
    X_U4A.vc     1.488E-12
    X_U4A.ve     2.562E-11
    X_U4A.vlim   1.642E-02
    X_U4A.vlp   -2.358E-11
    X_U4A.vln   -5.642E-11

    TOTAL POWER DISSIPATION   1.77E+00  WATTS


**** 05/18/25 15:06:09 **** PSpice 24.1.0 (23 January 2025) *** ID# 0 ********

 ** Profile: "SCHEMATIC1-Analiza_Monte_Carlo"  [ D:\Orcad Work\cdssetup\workspace\projects\draft_proiect_paul\draft_proiect_paul-pspi


 ****     SORTED DEVIATIONS OF V(OUT)      TEMPERATURE =   27.000 DEG C

                      MONTE CARLO SUMMARY

******************************************************************************





Mean Deviation =    8.4467
Sigma          =   19.947

 RUN                    MAX DEVIATION FROM NOMINAL

Pass   46               22.677  (1.14 sigma)  higher  at T =  213.4600E-06
                        ( -98.026% of Nominal)

Pass   82               22.674  (1.14 sigma)  higher  at T =  214.0800E-06
                        ( -98.007% of Nominal)

Pass    7               22.669  (1.14 sigma)  higher  at T =  213.9000E-06
                        ( -97.957% of Nominal)

Pass   13               22.665  (1.14 sigma)  higher  at T =  215.0200E-06
                        ( -97.925% of Nominal)

Pass   56               22.665  (1.14 sigma)  lower  at T =  464.8300E-06
                        (-102.36% of Nominal)

Pass   18               22.665  (1.14 sigma)  higher  at T =  213.7900E-06
                        ( -97.921% of Nominal)

Pass   67               22.664  (1.14 sigma)  higher  at T =  213.8500E-06
                        ( -97.919% of Nominal)

Pass   69               22.664  (1.14 sigma)  higher  at T =  213.4100E-06
                        ( -97.917% of Nominal)

Pass   15               22.663  (1.14 sigma)  higher  at T =  213.8000E-06
                        ( -97.906% of Nominal)

Pass   27               22.659  (1.14 sigma)  higher  at T =  214.0200E-06
                        ( -97.875% of Nominal)

Pass   23               22.659  (1.14 sigma)  higher  at T =  214.9000E-06
                        ( -97.87 % of Nominal)

Pass   90               22.658  (1.14 sigma)  higher  at T =  874.3300E-06
                        ( -98.245% of Nominal)

Pass   31               22.657  (1.14 sigma)  higher  at T =  213.9600E-06
                        ( -97.852% of Nominal)

Pass   74               22.655  (1.14 sigma)  higher  at T =  873.3300E-06
                        ( -98.221% of Nominal)

Pass   42               22.654  (1.14 sigma)  higher  at T =  213.4500E-06
                        ( -97.827% of Nominal)

Pass   92               22.654  (1.14 sigma)  higher  at T =  874.0600E-06
                        ( -98.21 % of Nominal)

Pass    5               22.653  (1.14 sigma)  higher  at T =  875.0600E-06
                        ( -98.2  % of Nominal)

Pass   10               22.649  (1.14 sigma)  higher  at T =  873.6100E-06
                        ( -98.172% of Nominal)

Pass   38               22.648  (1.14 sigma)  higher  at T =  873.3300E-06
                        ( -98.158% of Nominal)

Pass   43               22.646  (1.14 sigma)  higher  at T =  214.6100E-06
                        ( -97.762% of Nominal)

Pass   22               22.645  (1.14 sigma)  higher  at T =  874.1800E-06
                        ( -98.135% of Nominal)

Pass   70               22.644  (1.14 sigma)  lower  at T =  662.5100E-06
                        (-102.17% of Nominal)

Pass   60               22.643  (1.14 sigma)  higher  at T =  873.4300E-06
                        ( -98.118% of Nominal)

Pass   20               22.643  (1.14 sigma)  higher  at T =  215.6200E-06
                        ( -97.732% of Nominal)

Pass   72               22.642  (1.14 sigma)  higher  at T =  590.5500E-06
                        (-102.15% of Nominal)

Pass   59               22.642  (1.14 sigma)  higher  at T =  438.1500E-06
                        (-102.15% of Nominal)

Pass   64               22.642  (1.14 sigma)  higher  at T =  873.4900E-06
                        ( -98.104% of Nominal)

Pass   66               22.638  (1.13 sigma)  higher  at T =  213.8900E-06
                        ( -97.69 % of Nominal)

Pass    2               22.637  (1.13 sigma)  higher  at T =  874.4300E-06
                        ( -98.062% of Nominal)

Pass   58               22.637  (1.13 sigma)  higher  at T =  213.7300E-06
                        ( -97.677% of Nominal)

Pass   83               22.636  (1.13 sigma)  higher  at T =  742.8400E-06
                        (-102.13% of Nominal)

Pass   61               22.636  (1.13 sigma)  higher  at T =  874.9500E-06
                        ( -98.058% of Nominal)

Pass   39               22.636  (1.13 sigma)  higher  at T =  214.0300E-06
                        ( -97.67 % of Nominal)

Pass   95               22.635  (1.13 sigma)  higher  at T =  213.9500E-06
                        ( -97.662% of Nominal)

Pass   30               22.632  (1.13 sigma)  higher  at T =  873.2300E-06
                        ( -98.022% of Nominal)

Pass   89               22.631  (1.13 sigma)  higher  at T =  588.2800E-06
                        (-102.06% of Nominal)

Pass   79               22.631  (1.13 sigma)  higher  at T =  873.7000E-06
                        ( -98.009% of Nominal)

Pass   34               22.63   (1.13 sigma)  higher  at T =  873.6100E-06
                        ( -98.002% of Nominal)

Pass   50               22.629  (1.13 sigma)  higher  at T =  875.1400E-06
                        ( -97.996% of Nominal)

Pass   91               22.627  (1.13 sigma)  higher  at T =  873.5700E-06
                        ( -97.974% of Nominal)

Pass   65               22.625  (1.13 sigma)  higher  at T =  213.3700E-06
                        ( -97.578% of Nominal)

Pass   24               22.624  (1.13 sigma)  higher  at T =  872.8100E-06
                        ( -97.953% of Nominal)

Pass  100               22.623  (1.13 sigma)  lower  at T =  509.5300E-06
                        (-101.98% of Nominal)

Pass   16               22.622  (1.13 sigma)  higher  at T =  893.6000E-06
                        (-101.98% of Nominal)

Pass   80               22.622  (1.13 sigma)  lower  at T =  666.9700E-06
                        (-101.97% of Nominal)

Pass   37               22.618  (1.13 sigma)  higher  at T =  873.3900E-06
                        ( -97.901% of Nominal)

Pass   94               22.615  (1.13 sigma)  higher  at T =  587.6000E-06
                        (-101.91% of Nominal)

Pass   73               22.611  (1.13 sigma)  lower  at T =  919.6900E-06
                        (-101.87% of Nominal)

Pass   86               22.609  (1.13 sigma)  lower  at T =  870.5000E-06
                        (-101.86% of Nominal)

Pass   47               22.607  (1.13 sigma)  lower  at T =  999.3400E-06
                        ( -98.176% of Nominal)

Pass   21               22.607  (1.13 sigma)  higher  at T =  874.8000E-06
                        ( -97.801% of Nominal)

Pass   19               22.607  (1.13 sigma)  higher  at T =  589.6600E-06
                        (-101.83% of Nominal)

Pass   26               22.606  (1.13 sigma)  lower  at T =  910.0500E-06
                        (-101.83% of Nominal)

Pass   88               22.604  (1.13 sigma)  higher  at T =  285.9300E-06
                        (-101.82% of Nominal)

Pass   14               22.604  (1.13 sigma)  higher  at T =  995.8400E-06
                        (-101.81% of Nominal)

Pass   33               22.597  (1.13 sigma)  lower  at T =  868.7300E-06
                        (-101.75% of Nominal)

Pass   41               22.595  (1.13 sigma)  lower  at T =  870.4900E-06
                        (-101.73% of Nominal)

Pass   48               22.593  (1.13 sigma)  lower  at T =  612.9400E-06
                        (-101.72% of Nominal)

Pass   29               22.592  (1.13 sigma)  lower  at T =  260.2700E-06
                        (-101.71% of Nominal)

Pass   77               22.592  (1.13 sigma)  lower  at T =  869.8000E-06
                        (-101.7 % of Nominal)

Pass   25               22.59   (1.13 sigma)  higher  at T =  790.9400E-06
                        (-101.69% of Nominal)

Pass   75               22.59   (1.13 sigma)  higher  at T =  691.5000E-06
                        (-101.69% of Nominal)

Pass   45               22.588  (1.13 sigma)  lower  at T =  920.5500E-06
                        (-101.67% of Nominal)

Pass   76               22.584  (1.13 sigma)  higher  at T =  691.7900E-06
                        (-101.63% of Nominal)

Pass   44               22.58   (1.13 sigma)  lower  at T =  507.1500E-06
                        (-101.6 % of Nominal)

Pass   78               22.58   (1.13 sigma)  lower  at T =  813.4200E-06
                        (-101.6 % of Nominal)

Pass   32               22.579  (1.13 sigma)  higher  at T =  945.1700E-06
                        (-101.59% of Nominal)

Pass   84               22.573  (1.13 sigma)  lower  at T =  616.0300E-06
                        (-101.54% of Nominal)

Pass   71               22.571  (1.13 sigma)  lower  at T =  766.6700E-06
                        (-101.52% of Nominal)

Pass   53               22.568  (1.13 sigma)  lower  at T =  912.8800E-06
                        (-101.49% of Nominal)

Pass   35               22.566  (1.13 sigma)  lower  at T =  513.8100E-06
                        (-101.47% of Nominal)

Pass   97               22.565  (1.13 sigma)  lower  at T =  718.2900E-06
                        (-101.5 % of Nominal)

Pass   49               22.561  (1.13 sigma)  lower  at T =  807.7300E-06
                        (-101.43% of Nominal)

Pass    9               22.558  (1.13 sigma)  higher  at T =  895.0300E-06
                        (-101.4 % of Nominal)

Pass   52               22.555  (1.13 sigma)  lower  at T =  614.5900E-06
                        (-101.38% of Nominal)

Pass   55               22.549  (1.13 sigma)  higher  at T =  895.0300E-06
                        (-101.33% of Nominal)

Pass   40               22.526  (1.13 sigma)  lower  at T =  515.2800E-06
                        (-101.11% of Nominal)

Pass   11               22.526  (1.13 sigma)  higher  at T =  689.2400E-06
                        (-101.11% of Nominal)

Pass    4               22.494  (1.13 sigma)  lower  at T =  667.5000E-06
                        (-100.83% of Nominal)

Pass   17               22.493  (1.13 sigma)  higher  at T =  669.5900E-06
                        ( -98.538% of Nominal)

Pass    3               22.487  (1.13 sigma)  lower  at T =  868.6900E-06
                        (-100.76% of Nominal)

Pass   62               22.474  (1.13 sigma)  higher  at T =  996.9400E-06
                        (-101.76% of Nominal)

Pass   54               22.41   (1.12 sigma)  lower  at T =  972.0800E-06
                        (-100.12% of Nominal)

Pass   96               22.241  (1.12 sigma)  higher  at T =  822.0800E-06
                        ( -95.204% of Nominal)

Pass   93               21.646  (1.09 sigma)  higher  at T =  872.6900E-06
                        ( -89.69 % of Nominal)

Pass   57               19.748  ( .99 sigma)  higher  at T =  872.6600E-06
                        ( -82.39 % of Nominal)

Pass   85               19.482  ( .98 sigma)  higher  at T =  669.5300E-06
                        ( -80.242% of Nominal)

Pass   51               18.484  ( .93 sigma)  higher  at T =  821.9700E-06
                        ( -76.301% of Nominal)

Pass   63               16.5    ( .83 sigma)  higher  at T =  872.5800E-06
                        ( -68.082% of Nominal)

Pass    8               15.824  ( .79 sigma)  higher  at T =  568.1400E-06
                        ( -64.241% of Nominal)

Pass   68               15.199  ( .76 sigma)  higher  at T =  896.3000E-06
                        (-247.44% of Nominal)

Pass   99               14.666  ( .74 sigma)  higher  at T =  821.7700E-06
                        ( -50.119% of Nominal)

Pass   98               13.796  ( .69 sigma)  lower  at T =  593.2900E-06
                        ( -26.832% of Nominal)

Pass    6               13.471  ( .68 sigma)  higher  at T =  998.0100E-06
                        (-345.89% of Nominal)

Pass   28               13.15   ( .66 sigma)  higher  at T =  365.0000E-06
                        (-131.02% of Nominal)

Pass   36               11.988  ( .60 sigma)  lower  at T =  897.6500E-06
                        (  -8.3897% of Nominal)

Pass   81               11.729  ( .59 sigma)  higher  at T =  821.6700E-06
                        ( -37.726% of Nominal)

Pass   87               9.8573  ( .49 sigma)  higher  at T =  111.6500E-06
                        ( -39.524% of Nominal)

Pass   12               7.5006  ( .38 sigma)  lower  at T =  973.1000E-06
                        ( -87.147% of Nominal)



          JOB CONCLUDED

**** 05/18/25 15:06:09 **** PSpice 24.1.0 (23 January 2025) *** ID# 0 ********

 ** Profile: "SCHEMATIC1-Analiza_Monte_Carlo"  [ D:\Orcad Work\cdssetup\workspace\projects\draft_proiect_paul\draft_proiect_paul-pspi


 ****     JOB STATISTICS SUMMARY


******************************************************************************



  Total job time (using Solver 1)   =       44.47
